##TITLE=Ref molecule 24
Group Service
H1_COSY_HiRes_Night CDCl3 /mnt/nmrdata/Service n82265as 7
##JCAMPDX= 6.0         $$ Bruker NMR JCAMP-DX V2.0
##DATA TYPE= nD NMR SPECTRUM
##DATA CLASS= NTUPLES
##NUM DIM= 2
##ORIGIN= Bruker BioSpin GmbH
##OWNER= nmrsu
##LONG DATE= 2024/11/26 20:38:08+0000
$$ TopSpin 4.4.0
$$ 2024-11-28 17:07:59.722 +0000  DS\mbdssra2@E-10ACC31777JT
$$ Compression mode = diff/dup
##.OBSERVE FREQUENCY= 400.172200935
##.OBSERVE NUCLEUS= ^1H
##.ACQUISITION MODE= SIMULTANEOUS (DQD)
##.ACQUISITION SCHEME= NOT PHASE SENSITIVE
##.AVERAGES= 4
##.DIGITISER RES= 23
##SPECTROMETER/DATA SYSTEM= spect
##.PULSE SEQUENCE= cosygpqf
##.SOLVENT NAME= CDCl3
##.SHIFT REFERENCE= INTERNAL, CDCl3, 1, 11.4917
##AUDIT TRAIL= $$ (NUMBER, WHEN, WHO, WHERE, PROCESS, VERSION, WHAT)
$$ ##TITLE= Audit trail, TopSpin 3.6.2
$$ ##JCAMPDX= 5.01
$$ ##ORIGIN= Bruker BioSpin GmbH
$$ ##OWNER= nmrsu
$$ $$ /mnt/nasr/NMR/Service/data/n82265as/nmr/20241126-1044-B400_B.14-7/12/pdata/1/auditp.txt
$$ ##AUDIT TRAIL=  $$ (NUMBER, WHEN, WHO, WHERE, PROCESS, VERSION, WHAT)
(   1,<2024-11-26 20:59:12.645 +0000>,<nmrsu>,<pink.ch.man.ac.uk>,<go4>,<TopSpin 3.6.2>,
      <created by zg
	started at 2024-11-26 20:37:45.712 +0000,
	POWCHK enabled, PULCHK disabled,
       configuration hash MD5:
       35 18 8D D7 72 B9 E5 A9 88 DF E0 8F D0 AA BC 60
       data hash MD5: 4K * 128
       02 AE 99 C8 54 D1 F2 47 D1 26 53 A3 A7 C1 E3 CD>)
(   2,<2024-11-26 20:59:12.694 +0000>,<nmrsu>,<pink.ch.man.ac.uk>,<audit>,<TopSpin 3.6.2>,
      <user comment:
       ICON-NMR User ID: n82265as
       data hash MD5: 4K * 128
       02 AE 99 C8 54 D1 F2 47 D1 26 53 A3 A7 C1 E3 CD>)
(   3,<2024-11-26 20:59:13.078 +0000>,<nmrsu>,<pink.ch.man.ac.uk>,<proc2d>,<TopSpin 3.6.2>,
      <Start of raw data processing
       xf2 nd2d nodisp F2: SI = 512 WDW = 4 SSB = 0 FT_mod = 6 PKNL = 1 PHC0 = -8.978053 PHC1 = 38.24854 F1: SI = 512
       data hash MD5: 512 * 512
       50 79 0F E8 6B 7D C1 4C 04 AC B2 18 56 1B C2 A3>)
(   4,<2024-11-26 20:59:15.810 +0000>,<nmrsu>,<pink.ch.man.ac.uk>,<mddnmr>,<TopSpin 3.6.2>,
      <mdd: Mdd_mod = cs Mdd_CsALG = ist
       data hash MD5: 512 * 512
       51 4E 9E 24 0F 25 5A 64 8D 5B 13 01 68 F4 70 BE>)
(   5,<2024-11-26 20:59:15.836 +0000>,<nmrsu>,<pink.ch.man.ac.uk>,<proc2d>,<TopSpin 3.6.2>,
      <xf1 F1: SI = 512 WDW = 4 SSB = 0 FT_mod = 6 FCOR = 0.5 PH_mod = 2
       data hash MD5: 512 * 512
       1C 2F E8 14 B4 FB 2F 0B 31 1E 39 D9 B1 04 9B 02>)
(   6,<2024-11-26 20:59:15.854 +0000>,<nmrsu>,<pink.ch.man.ac.uk>,<proc2d>,<TopSpin 3.6.2>,
      <abs2 F2: ABSG = 5 ABSF1 = 11.4917 ABSF2 = -0.4916979
       data hash MD5: 512 * 512
       96 AE C1 5A 0C 65 15 E8 A7 4B B2 D9 42 E8 DD 7D>)
(   7,<2024-11-26 20:59:15.876 +0000>,<nmrsu>,<pink.ch.man.ac.uk>,<proc2d>,<TopSpin 3.6.2>,
      <abs1 F1: ABSG = 5 ABSF1 = 11.48978 ABSF2 = -0.4897879
       data hash MD5: 512 * 512
       10 FF F3 34 6B 28 46 E6 F9 6F 4F 5A EA 51 57 46>)
(   8,<2024-11-26 20:59:16.900 +0000>,<nmrsu>,<pink.ch.man.ac.uk>,<dirdata>,<TopSpin 3.6.2>,
      <wrpa from 1 12 "20241126-1044-B400_B.14-7" "/mnt/nmrdata/Service/data/n82265as/nmr"
       data hash MD5: 512 * 512
       10 FF F3 34 6B 28 46 E6 F9 6F 4F 5A EA 51 57 46>)
$$ ##END=
$$ 
$$ $$ hash MD5
$$ $$ 2E E5 F9 19 81 25 97 98 11 B0 53 61 C9 F1 FB FB
##$RELAX= 
##$BRUKER FILE EXP=format.temp
$$ EDIT_PAR COMMAND FILE
$$ 
$$ DI_MODE         LONG
$$ ED_ENTRY        ACQU
$$ ORDER           FILE
$$ 
$$ 
$$ HEADER		"F2 - Acquisition Parameters"
$$ T_NAME		Date_
$$ 		TYPE	R64
$$ 		CLASS	ACQU
$$ 		SUBRANGE 0.0 50000000
$$ 		REL	"Date_=itodate(DATE)"
$$ 		INV_REL	"DATE=datetoi(Date_,DATE)"
$$ 		FORMAT	"%14.0f"
$$ 		TEXT	" "
$$ END
$$ T_NAME		Time
$$ 		TYPE	R32
$$ 		CLASS	ACQU
$$ 		SUBRANGE 0.0 1000000
$$ 		REL	"Time=itotime(DATE)"
$$ 		INV_REL	"DATE=timetoi(Time,DATE)"
$$ 		FORMAT	"%14.2f h"
$$ 		TEXT	" "
$$ END
$$ NAME		INSTRUM
$$ 		TEXT	" "
$$ END
$$ NAME		PROBHD
$$ 		FORMAT	"%14.14s"
$$ 		TEXT	" "
$$ END
$$ NAME		PULPROG
$$ 		TEXT	" "
$$ END
$$ NAME		TD
$$ 		TEXT	" "
$$ END
$$ NAME		SOLVENT
$$ 		TEXT	" "
$$ END
$$ NAME		NS
$$ 		TEXT	" "
$$ END
$$ NAME		DS
$$ 		TEXT	" "
$$ END
$$ T_NAME		SWH
$$ 		TYPE	R32
$$ 		CLASS	ACQU
$$ 		SUBRANGE 0.0 1e8
$$ 		REL	"SWH=SW*SFO1"
$$ 		INV_REL "SW=SWH/SFO1"
$$ 		UNIT	"Hz"
$$ 		FORMAT	"%14.3f Hz"
$$ 		TEXT	" "
$$ END
$$ T_NAME          FIDRES
$$                 TYPE    R32
$$                 CLASS   ACQU
$$                 SUBRANGE 0.0 100000
$$                 REL     "FIDRES=2*SW*SFO1/TD"
$$                 INV_REL "TD = nextpow(2*SW*SFO1/FIDRES)"
$$ 		UNIT	"Hz"
$$ 		FORMAT	"%14.6f Hz"
$$ 		TEXT	" "
$$ END
$$ T_NAME          AQ
$$ 		TYPE	R32
$$ 		CLASS	ACQU
$$ 		SUBRANGE 0.0 1000
$$ 		REL	"AQ=aqcalc(SW,SFO1,TD,DIGTYP)"
$$ 		INV_REL	"TD=tdcalc(SW,SFO1,1.0e6*AQ,DIGTYP)"
$$ 		UNIT	"sec"
$$ 		FORMAT	"%14.7f sec"
$$ 		TEXT	" "
$$ END
$$ NAME		RG
$$ 		TEXT	" "
$$ END
$$ T_NAME          DW
$$ 		TYPE	R32
$$ 		CLASS	ACQU
$$ 		SUBRANGE 0.0 1000000
$$ 		REL	"DW=1/(2*SW*SFO1)"
$$ 		INV_REL	"SW=1000000/(2*(0.005+DW)*SFO1)"
$$ 		UNIT	"usec"
$$ 		FORMAT	"%14.3lf usec"
$$ 		TEXT	" "
$$ END
$$ NAME		DE
$$ 		FORMAT	"%14.2f usec"
$$ 		TEXT	" "
$$ END
$$ NAME		TE
$$ 		FORMAT	"%14.1f K"
$$ 		TEXT	" "
$$ END
$$ T_NAME		D0
$$ 		TYPE	R32
$$ 		CLASS	ACQU
$$ 		SUBRANGE 0.0 1e38
$$ 		REL	"D0=D[0]"
$$ 		INV_REL	"D[0]=D0"
$$ 		UNIT	"sec"
$$ 		FORMAT	"%14.8f sec"
$$ 		TEXT	" "
$$ END
$$ T_NAME		D1
$$ 		TYPE	R32
$$ 		CLASS	ACQU
$$ 		SUBRANGE 0.0 1e38
$$ 		REL	"D1=D[1]"
$$ 		INV_REL	"D[1]=D1"
$$ 		UNIT	"sec"
$$ 		FORMAT	"%14.8f sec"
$$ 		TEXT	" "
$$ END
$$ T_NAME		D13
$$ 		TYPE	R32
$$ 		CLASS	ACQU
$$ 		SUBRANGE 0.0 1e38
$$ 		REL	"D13=D[13]"
$$ 		INV_REL	"D[13]=D13"
$$ 		UNIT	"sec"
$$ 		FORMAT	"%14.8f sec"
$$ 		TEXT	" "
$$ END
$$ T_NAME		D16
$$ 		TYPE	R32
$$ 		CLASS	ACQU
$$ 		SUBRANGE 0.0 1e38
$$ 		REL	"D16=D[16]"
$$ 		INV_REL	"D[16]=D16"
$$ 		UNIT	"sec"
$$ 		FORMAT	"%14.8f sec"
$$ 		TEXT	" "
$$ END
$$ T_NAME		IN0
$$ 		TYPE	R32
$$ 		CLASS	ACQU
$$ 		SUBRANGE 0.0 1e38
$$ 		REL	"IN0=IN[0]"
$$ 		INV_REL	"IN[0]=IN0"
$$ 		UNIT	"sec"
$$ 		FORMAT	"%14.8f sec"
$$ 		TEXT	" "
$$ END
$$ T_NAME		SPARSELIST
$$ 		TYPE	I32
$$ 		SUBRANGE 0 2147483647
$$ 		CLASS	ACQU
$$ 		REL	"SPARSELIST=             0"
$$ 		INV_REL	"D[0]=SPARSELIST"
$$ 		UNIT	"no"
$$ 		TEXT	" "
$$ 		FORMAT	"%14d"
$$ 		NONEDIT
$$ END
$$ NAME		TDav
$$ 		TEXT	" "
$$ END
$$ NAME		SFO1
$$ 		FORMAT	"%14.7f MHz"
$$ 		TEXT	" "
$$ END
$$ NAME		NUC1
$$ 		NONEDIT
$$ 		TEXT	" "
$$ END
$$ T_NAME		P0
$$ 		TYPE	R32
$$ 		CLASS	ACQU
$$ 		SUBRANGE 0.0 1.0e10
$$ 		REL	"P0=P[0]"
$$ 		INV_REL	"P[0]=P0"
$$ 		UNIT	"usec"
$$ 		FORMAT	"%14.2f usec"
$$ 		TEXT	" "
$$ END
$$ T_NAME		P1
$$ 		TYPE	R32
$$ 		CLASS	ACQU
$$ 		SUBRANGE 0.0 1.0e10
$$ 		REL	"P1=P[1]"
$$ 		INV_REL	"P[1]=P1"
$$ 		UNIT	"usec"
$$ 		FORMAT	"%14.2f usec"
$$ 		TEXT	" "
$$ END
$$ T_NAME		PLW1
$$ 		TYPE	R32
$$ 		CLASS	ACQU
$$ 		REL	"PLW1=PLW[1]"
$$ 		INV_REL	"PLW[1]=PLW1"
$$ 		UNIT	"W"
$$ 		FORMAT	"%14.8f W"
$$ 		TEXT	"power PLW1 "
$$ END
$$ NAME		GPNAM[1]
$$ 		TEXT	" "
$$ END
$$ T_NAME		GPZ1
$$ 		TYPE	R32
$$ 		CLASS	ACQU
$$ 		SUBRANGE -100.0 100.0
$$ 		REL	"GPZ1=GPZ[1]"
$$ 		INV_REL	"GPZ[1]=GPZ1"
$$ 		UNIT	"%"
$$ 		FORMAT	"%14.2f %"
$$ 		TEXT	" "
$$ END
$$ T_NAME		P16
$$ 		TYPE	R32
$$ 		CLASS	ACQU
$$ 		SUBRANGE 0.0 1.0e10
$$ 		REL	"P16=P[16]"
$$ 		INV_REL	"P[16]=P16"
$$ 		UNIT	"usec"
$$ 		FORMAT	"%14.2f usec"
$$ 		TEXT	" "
$$ END
##$RELAX= 
##$BRUKER FILE EXP=fq1list
$$ O 400.172201
$$ -4000000
$$ -3976562
$$ -3953125
$$ -3929688
$$ -3906250
$$ -3882812
$$ -3859375
$$ -3835938
$$ -3812500
$$ -3789062
$$ -3765625
$$ -3742188
$$ -3718750
$$ -3695312
$$ -3671875
$$ -3648438
$$ -3625000
$$ -3601562
$$ -3578125
$$ -3554688
$$ -3531250
$$ -3507812
$$ -3484375
$$ -3460938
$$ -3437500
$$ -3414062
$$ -3390625
$$ -3367188
$$ -3343750
$$ -3320312
$$ -3296875
$$ -3273438
$$ -3250000
$$ -3226562
$$ -3203125
$$ -3179688
$$ -3156250
$$ -3132812
$$ -3109375
$$ -3085938
$$ -3062500
$$ -3039062
$$ -3015625
$$ -2992188
$$ -2968750
$$ -2945312
$$ -2921875
$$ -2898438
$$ -2875000
$$ -2851562
$$ -2828125
$$ -2804688
$$ -2781250
$$ -2757812
$$ -2734375
$$ -2710938
$$ -2687500
$$ -2664062
$$ -2640625
$$ -2617188
$$ -2593750
$$ -2570312
$$ -2546875
$$ -2523438
$$ -2500000
$$ -2476562
$$ -2453125
$$ -2429688
$$ -2406250
$$ -2382812
$$ -2359375
$$ -2335938
$$ -2312500
$$ -2289062
$$ -2265625
$$ -2242188
$$ -2218750
$$ -2195312
$$ -2171875
$$ -2148438
$$ -2125000
$$ -2101562
$$ -2078125
$$ -2054688
$$ -2031250
$$ -2007812
$$ -1984375
$$ -1960938
$$ -1937500
$$ -1914062
$$ -1890625
$$ -1867188
$$ -1843750
$$ -1820312
$$ -1796875
$$ -1773438
$$ -1750000
$$ -1726562
$$ -1703125
$$ -1679688
$$ -1656250
$$ -1632812
$$ -1609375
$$ -1585938
$$ -1562500
$$ -1539062
$$ -1515625
$$ -1492188
$$ -1468750
$$ -1445312
$$ -1421875
$$ -1398438
$$ -1375000
$$ -1351562
$$ -1328125
$$ -1304688
$$ -1281250
$$ -1257812
$$ -1234375
$$ -1210938
$$ -1187500
$$ -1164062
$$ -1140625
$$ -1117188
$$ -1093750
$$ -1070312
$$ -1046875
$$ -1023438
$$ -1000000
$$  -992157
$$  -984314
$$  -976471
$$  -968627
$$  -960784
$$  -952941
$$  -945098
$$  -937255
$$  -929412
$$  -921569
$$  -913725
$$  -905882
$$  -898039
$$  -890196
$$  -882353
$$  -874510
$$  -866667
$$  -858824
$$  -850980
$$  -843137
$$  -835294
$$  -827451
$$  -819608
$$  -811765
$$  -803922
$$  -796078
$$  -788235
$$  -780392
$$  -772549
$$  -764706
$$  -756863
$$  -749020
$$  -741176
$$  -733333
$$  -725490
$$  -717647
$$  -709804
$$  -701961
$$  -694118
$$  -686275
$$  -678431
$$  -670588
$$  -662745
$$  -654902
$$  -647059
$$  -639216
$$  -631373
$$  -623529
$$  -615686
$$  -607843
$$  -600000
$$  -592157
$$  -584314
$$  -576471
$$  -568627
$$  -560784
$$  -552941
$$  -545098
$$  -537255
$$  -529412
$$  -521569
$$  -513725
$$  -505882
$$  -498039
$$  -490196
$$  -482353
$$  -474510
$$  -466667
$$  -458824
$$  -450980
$$  -443137
$$  -435294
$$  -427451
$$  -419608
$$  -411765
$$  -403922
$$  -396078
$$  -388235
$$  -380392
$$  -372549
$$  -364706
$$  -356863
$$  -349020
$$  -341176
$$  -333333
$$  -325490
$$  -317647
$$  -309804
$$  -301961
$$  -294118
$$  -286275
$$  -278431
$$  -270588
$$  -262745
$$  -254902
$$  -247059
$$  -239216
$$  -231373
$$  -223529
$$  -215686
$$  -207843
$$  -200000
$$  -192157
$$  -184314
$$  -176471
$$  -168627
$$  -160784
$$  -152941
$$  -145098
$$  -137255
$$  -129412
$$  -121569
$$  -113725
$$  -105882
$$   -98039
$$   -90196
$$   -82353
$$   -74510
$$   -66667
$$   -58824
$$   -50980
$$   -43137
$$   -35294
$$   -27451
$$   -19608
$$   -11765
$$    -3922
$$     3922
$$    11765
$$    19608
$$    27451
$$    35294
$$    43137
$$    50980
$$    58824
$$    66667
$$    74510
$$    82353
$$    90196
$$    98039
$$   105882
$$   113725
$$   121569
$$   129412
$$   137255
$$   145098
$$   152941
$$   160784
$$   168627
$$   176471
$$   184314
$$   192157
$$   200000
$$   207843
$$   215686
$$   223529
$$   231373
$$   239216
$$   247059
$$   254902
$$   262745
$$   270588
$$   278431
$$   286275
$$   294118
$$   301961
$$   309804
$$   317647
$$   325490
$$   333333
$$   341176
$$   349020
$$   356863
$$   364706
$$   372549
$$   380392
$$   388235
$$   396078
$$   403922
$$   411765
$$   419608
$$   427451
$$   435294
$$   443137
$$   450980
$$   458824
$$   466667
$$   474510
$$   482353
$$   490196
$$   498039
$$   505882
$$   513725
$$   521569
$$   529412
$$   537255
$$   545098
$$   552941
$$   560784
$$   568627
$$   576471
$$   584314
$$   592157
$$   600000
$$   607843
$$   615686
$$   623529
$$   631373
$$   639216
$$   647059
$$   654902
$$   662745
$$   670588
$$   678431
$$   686275
$$   694118
$$   701961
$$   709804
$$   717647
$$   725490
$$   733333
$$   741176
$$   749020
$$   756863
$$   764706
$$   772549
$$   780392
$$   788235
$$   796078
$$   803922
$$   811765
$$   819608
$$   827451
$$   835294
$$   843137
$$   850980
$$   858824
$$   866667
$$   874510
$$   882353
$$   890196
$$   898039
$$   905882
$$   913725
$$   921569
$$   929412
$$   937255
$$   945098
$$   952941
$$   960784
$$   968627
$$   976471
$$   984314
$$   992157
$$  1000000
$$  1023437
$$  1046875
$$  1070312
$$  1093750
$$  1117187
$$  1140625
$$  1164062
$$  1187500
$$  1210937
$$  1234375
$$  1257812
$$  1281250
$$  1304687
$$  1328125
$$  1351562
$$  1375000
$$  1398437
$$  1421875
$$  1445312
$$  1468750
$$  1492187
$$  1515625
$$  1539062
$$  1562500
$$  1585937
$$  1609375
$$  1632812
$$  1656250
$$  1679687
$$  1703125
$$  1726562
$$  1750000
$$  1773437
$$  1796875
$$  1820312
$$  1843750
$$  1867187
$$  1890625
$$  1914062
$$  1937500
$$  1960937
$$  1984375
$$  2007812
$$  2031250
$$  2054687
$$  2078125
$$  2101562
$$  2125000
$$  2148437
$$  2171875
$$  2195312
$$  2218750
$$  2242187
$$  2265625
$$  2289062
$$  2312500
$$  2335937
$$  2359375
$$  2382812
$$  2406250
$$  2429687
$$  2453125
$$  2476562
$$  2500000
$$  2523437
$$  2546875
$$  2570312
$$  2593750
$$  2617187
$$  2640625
$$  2664062
$$  2687500
$$  2710937
$$  2734375
$$  2757812
$$  2781250
$$  2804687
$$  2828125
$$  2851562
$$  2875000
$$  2898437
$$  2921875
$$  2945312
$$  2968750
$$  2992187
$$  3015625
$$  3039062
$$  3062500
$$  3085937
$$  3109375
$$  3132812
$$  3156250
$$  3179687
$$  3203125
$$  3226562
$$  3250000
$$  3273437
$$  3296875
$$  3320312
$$  3343750
$$  3367187
$$  3390625
$$  3414062
$$  3437500
$$  3460937
$$  3484375
$$  3507812
$$  3531250
$$  3554687
$$  3578125
$$  3601562
$$  3625000
$$  3648437
$$  3671875
$$  3695312
$$  3718750
$$  3742187
$$  3765625
$$  3789062
$$  3812500
$$  3835937
$$  3859375
$$  3882812
$$  3906250
$$  3929687
$$  3953125
$$  3976562
$$  4000000
##$RELAX= 
##$BRUKER FILE EXP=gpnam1
$$ ##TITLE= 
$$ ##JCAMP-DX= 5.00 Bruker JCAMP library
$$ ##DATA TYPE= Shape Data
$$ ##ORIGIN= Bruker BioSpin GmbH
$$ ##OWNER= <demo>
$$ ##DATE= 2008/09/08
$$ ##TIME= 13:20:52
$$ ##$SHAPE_PARAMETERS= Type: Sinus ; Number of Cycles 1.0 ; Phase Angle [deg] 0.0
$$ ##MINX= 0.000000E00
$$ ##MAXX= 1.000000E02
$$ ##MINY= 0.000000E00
$$ ##MAXY= 1.000000E00
$$ ##$SHAPE_EXMODE= Gradient
$$ ##$SHAPE_TOTROT= 9.000000E01
$$ ##$SHAPE_TYPE= None
$$ ##$SHAPE_USER_DEF= 
$$ ##$SHAPE_REPHFAC= 
$$ ##$SHAPE_BWFAC= 0.000000E00
$$ ##$SHAPE_BWFAC50= 
$$ ##$SHAPE_INTEGFAC= 6.3656674E-01
$$ ##$SHAPE_MODE= 0
$$ ##NPOINTS= 100
$$ ##XYDATA= (X++(Y..Y))
$$ 3.141076E-02
$$ 6.279052E-02
$$ 9.410831E-02
$$ 1.253332E-01
$$ 1.564345E-01
$$ 1.873813E-01
$$ 2.181432E-01
$$ 2.486899E-01
$$ 2.789911E-01
$$ 3.090170E-01
$$ 3.387379E-01
$$ 3.681246E-01
$$ 3.971479E-01
$$ 4.257793E-01
$$ 4.539905E-01
$$ 4.817537E-01
$$ 5.090414E-01
$$ 5.358268E-01
$$ 5.620834E-01
$$ 5.877853E-01
$$ 6.129071E-01
$$ 6.374240E-01
$$ 6.613119E-01
$$ 6.845471E-01
$$ 7.071068E-01
$$ 7.289686E-01
$$ 7.501111E-01
$$ 7.705132E-01
$$ 7.901550E-01
$$ 8.090170E-01
$$ 8.270806E-01
$$ 8.443279E-01
$$ 8.607420E-01
$$ 8.763067E-01
$$ 8.910065E-01
$$ 9.048271E-01
$$ 9.177546E-01
$$ 9.297765E-01
$$ 9.408808E-01
$$ 9.510565E-01
$$ 9.602937E-01
$$ 9.685832E-01
$$ 9.759168E-01
$$ 9.822873E-01
$$ 9.876883E-01
$$ 9.921147E-01
$$ 9.955620E-01
$$ 9.980267E-01
$$ 9.995066E-01
$$ 1.000000E00
$$ 9.995066E-01
$$ 9.980267E-01
$$ 9.955620E-01
$$ 9.921147E-01
$$ 9.876883E-01
$$ 9.822873E-01
$$ 9.759168E-01
$$ 9.685832E-01
$$ 9.602937E-01
$$ 9.510565E-01
$$ 9.408808E-01
$$ 9.297765E-01
$$ 9.177546E-01
$$ 9.048271E-01
$$ 8.910065E-01
$$ 8.763067E-01
$$ 8.607420E-01
$$ 8.443279E-01
$$ 8.270806E-01
$$ 8.090170E-01
$$ 7.901550E-01
$$ 7.705132E-01
$$ 7.501111E-01
$$ 7.289686E-01
$$ 7.071068E-01
$$ 6.845471E-01
$$ 6.613119E-01
$$ 6.374240E-01
$$ 6.129071E-01
$$ 5.877853E-01
$$ 5.620834E-01
$$ 5.358268E-01
$$ 5.090414E-01
$$ 4.817537E-01
$$ 4.539905E-01
$$ 4.257793E-01
$$ 3.971479E-01
$$ 3.681246E-01
$$ 3.387379E-01
$$ 3.090170E-01
$$ 2.789911E-01
$$ 2.486899E-01
$$ 2.181432E-01
$$ 1.873813E-01
$$ 1.564345E-01
$$ 1.253332E-01
$$ 9.410831E-02
$$ 6.279052E-02
$$ 3.141076E-02
$$ 0.000000E00
$$ ##END=
##$RELAX= 
##$BRUKER FILE EXP=scon2
$$ ##TITLE= Parameter file, TopSpin 3.6.2
$$ ##JCAMPDX= 5.0
$$ ##DATATYPE= Parameter Values
$$ ##NPOINTS= 1	$$ modification sequence number
$$ ##ORIGIN= Bruker BioSpin GmbH
$$ ##OWNER= nmrsu
$$ $$ 2024-11-26 20:37:45.560 +0000  nmrsu@pink.ch.man.ac.uk
$$ $$ /mnt/nmrdata/Service/data/n82265as/nmr/20241126-1044-B400_B.14-7/12/scon2
$$ $$ process /opt/topspin3.6.2b/prog/mod/go4
$$ ##$BLKTR= (0..19)
$$ 3 3 3 3 3 3 3 3 3 3 3 3 3 3 3 3 3 3 3 3
$$ ##$DE1= 4.5
$$ ##$DEADC= 0.5
$$ ##$DEPA= 4.5
$$ ##$DERX= 1.5
$$ ##$FILCOR= 0
$$ ##$GRADCHAN= 0
$$ ##$GRADPRE= (0..1)
$$ 10 10
$$ ##$HD_BLKTR= (0..19)
$$ 1 1 1 1 1 1 1 1 1 1 1 1 1 1 1 1 1 1 1 1
$$ ##$HD_DE1= 5
$$ ##$HD_DEADC= 0
$$ ##$HD_DEPA= 2.5
$$ ##$HD_DERX= 0
$$ ##END=
##$RELAX= 
##$BRUKER FILE EXP=nuslist
$$ 0
$$ 85
$$ 294
$$ 457
$$ 252
$$ 36
$$ 144
$$ 82
$$ 69
$$ 25
$$ 38
$$ 411
$$ 229
$$ 50
$$ 401
$$ 78
$$ 507
$$ 157
$$ 113
$$ 115
$$ 340
$$ 104
$$ 75
$$ 55
$$ 346
$$ 169
$$ 489
$$ 154
$$ 463
$$ 473
$$ 18
$$ 403
$$ 410
$$ 74
$$ 155
$$ 127
$$ 387
$$ 447
$$ 347
$$ 11
$$ 45
$$ 68
$$ 160
$$ 243
$$ 79
$$ 459
$$ 504
$$ 416
$$ 364
$$ 322
$$ 222
$$ 404
$$ 415
$$ 136
$$ 129
$$ 497
$$ 187
$$ 57
$$ 300
$$ 253
$$ 188
$$ 269
$$ 198
$$ 483
$$ 99
$$ 336
$$ 103
$$ 111
$$ 162
$$ 289
$$ 30
$$ 309
$$ 467
$$ 430
$$ 16
$$ 402
$$ 350
$$ 317
$$ 191
$$ 173
$$ 480
$$ 511
$$ 156
$$ 306
$$ 486
$$ 413
$$ 205
$$ 189
$$ 310
$$ 128
$$ 409
$$ 240
$$ 464
$$ 384
$$ 429
$$ 271
$$ 134
$$ 158
$$ 66
$$ 376
$$ 236
$$ 323
$$ 328
$$ 258
$$ 14
$$ 137
$$ 178
$$ 394
$$ 414
$$ 510
$$ 165
$$ 369
$$ 206
$$ 224
$$ 106
$$ 126
$$ 355
$$ 382
$$ 499
$$ 335
$$ 305
$$ 371
$$ 27
$$ 2
$$ 255
$$ 161
$$ 207
$$ 112
##$RELAX= 
##$BRUKER FILE EXP=orig
$$ Ref molecule 24
$$ Group Service
##$RELAX= 
##$BRUKER FILE EXP=prosol_History
##$RELAX= 
##$BRUKER FILE EXP=pulseprogram
$$ # 1 "/opt/topspin3.6.2b/exp/stan/nmr/lists/pp/cosygpqf"
$$ ;cosygpqf
$$ ;avance-version (12/01/11)
$$ ;2D homonuclear shift correlation
$$ ;using gradient pulses for selection
$$ ;
$$ ;$CLASS=HighRes
$$ ;$DIM=2D
$$ ;$TYPE=
$$ ;$SUBTYPE=
$$ ;$COMMENT=
$$ 
$$ 
$$ # 1 "/opt/topspin3.6.2b/exp/stan/nmr/lists/pp/Avance.incl" 1
$$ ;Avance3aqs.incl
$$ ;   for AV III with AQS IPSO
$$ ;
$$ ;avance-version (15/06/05)
$$ ;
$$ ;$CLASS=HighRes Incl
$$ ;$COMMENT=
$$ # 170 "/opt/topspin3.6.2b/exp/stan/nmr/lists/pp/Avance.incl"
$$ ;$Id: Avance3aqs.incl,v 1.1.8.3 2015/03/05 16:46:54 ber Exp $
$$ # 13 "/opt/topspin3.6.2b/exp/stan/nmr/lists/pp/cosygpqf" 2
$$ 
$$ # 1 "/opt/topspin3.6.2b/exp/stan/nmr/lists/pp/Grad.incl" 1
$$ ;Grad2.incl  -  include file for Gradient Spectroscopy
$$ ;   for TCU3
$$ ;
$$ ;avance-version (07/01/17)
$$ ;
$$ ;$CLASS=HighRes Incl
$$ ;$COMMENT=
$$ 
$$ # 27 "/opt/topspin3.6.2b/exp/stan/nmr/lists/pp/Grad.incl"
$$ define list<gradient> EA=<EA>
$$ 
$$ 
$$ # 31 "/opt/topspin3.6.2b/exp/stan/nmr/lists/pp/Grad.incl"
$$ ;$Id: Grad2.incl,v 1.14 2012/01/31 17:49:21 ber Exp $
$$ # 14 "/opt/topspin3.6.2b/exp/stan/nmr/lists/pp/cosygpqf" 2
$$ 
$$ 
$$ # 17 "/opt/topspin3.6.2b/exp/stan/nmr/lists/pp/cosygpqf"
$$ "d13=4u"
$$ 
$$ 
$$ "in0=inf1"
$$ # 22 "/opt/topspin3.6.2b/exp/stan/nmr/lists/pp/cosygpqf"
$$ "d0=3u"
$$ 
$$ 
$$ # 1 "mc_line 25 file /opt/topspin3.6.2b/exp/stan/nmr/lists/pp/cosygpqf exp. def. part of mc cmd. before ze"
$$ ; dimension 2D; AQ_mode  (F1) QF
$$ define delay MCWRK
$$ define delay MCREST
$$ define delay d0orig
$$ "d0orig=d0"
$$ define list<loopcounter> SPARSELIST = <$NUSLIST>
$$ define loopcounter t1loop
$$ "t1loop=0"
$$ define loopcounter ph1loop
$$ "ph1loop=0"
$$ define loopcounter STNCNT
$$ "STNCNT=SPARSELIST.len/1"
$$ "MCREST = d1 - d1"
$$ "MCWRK = 0.250000*d1"
$$ 
$$     dccorr
$$ # 25 "/opt/topspin3.6.2b/exp/stan/nmr/lists/pp/cosygpqf"
$$ 1 ze
$$ # 1 "mc_line 25 file /opt/topspin3.6.2b/exp/stan/nmr/lists/pp/cosygpqf exp. def. of mc cmd. after ze"
$$ LBLAV, MCWRK
$$   MCWRK
$$   "t1loop = SPARSELIST"
$$   MCWRK  SPARSELIST.inc
$$       "d0=d0orig + t1loop * in0 "
$$ # 26 "/opt/topspin3.6.2b/exp/stan/nmr/lists/pp/cosygpqf"
$$ # 1 "mc_line 26 file /opt/topspin3.6.2b/exp/stan/nmr/lists/pp/cosygpqf exp. start label for mc cmd."
$$ 2 MCWRK  * 3
$$ LBLSTN, MCWRK
$$   MCREST
$$ # 27 "/opt/topspin3.6.2b/exp/stan/nmr/lists/pp/cosygpqf"
$$ 3 p1 ph1
$$   d0
$$   50u setnmr3|0 setnmr0|34|32|33 ctrlgrad 0
$$   p16:gp1
$$   d16
$$   p0 ph2
$$   d13
$$   p16:gp1
$$   d16
$$   4u setnmr3^0 setnmr0^34^32^33 ctrlgrad 7
$$   go=2 ph31
$$ # 1 "mc_line 38 file /opt/topspin3.6.2b/exp/stan/nmr/lists/pp/cosygpqf exp. mc cmd. in line"
$$   MCWRK  wr #0 if #0 zd 
$$ 
$$   MCWRK
$$   "t1loop = SPARSELIST"
$$   MCWRK  SPARSELIST.inc
$$       "d0=d0orig + t1loop * in0 "
$$   lo to LBLSTN times STNCNT
$$   MCWRK rf #0 SPARSELIST.res
$$   lo to LBLAV times tdav
$$ # 39 "/opt/topspin3.6.2b/exp/stan/nmr/lists/pp/cosygpqf"
$$ exit
$$ # 42 "/opt/topspin3.6.2b/exp/stan/nmr/lists/pp/cosygpqf"
$$ ph1=0 2
$$ ph2=0 0 2 2
$$ ph31=0 2
$$ 
$$ 
$$ ;pl1 : f1 channel - power level for pulse (default)
$$ ;p0 : f1 channel -  20 to 90 degree high power pulse
$$ ;p1 : f1 channel -  90 degree high power pulse
$$ ;p16: homospoil/gradient pulse
$$ ;d0 : incremented delay (2D)                         [3 usec]
$$ ;d1 : relaxation delay; 1-5 * T1
$$ ;d13: short delay                                    [4 usec]
$$ ;d16: delay for homospoil/gradient recovery
$$ ;inf1: 1/SW = 2 * DW
$$ ;in0: 1/(1 * SW) = 2 * DW
$$ ;nd0: 1
$$ ;ns: 1 * n
$$ ;ds: 16
$$ ;td1: number of experiments
$$ ;FnMODE: QF
$$ # 63 "/opt/topspin3.6.2b/exp/stan/nmr/lists/pp/cosygpqf"
$$ ;use gradient ratio:	gp 1
$$ ;			  10
$$ 
$$ ;for z-only gradients:
$$ ;gpz1: 10%
$$ 
$$ ;use gradient files:   
$$ ;gpnam1: SMSQ10.100
$$ # 74 "/opt/topspin3.6.2b/exp/stan/nmr/lists/pp/cosygpqf"
$$ ;$Id: cosygpqf,v 1.7 2012/01/31 17:49:22 ber Exp $
##$RELAX= 
##$BRUKER FILE EXP=shimvalues
$$ # Tue Nov 26 20:38:08 2024
$$ #$$PROBEIDENTIFIER=Z108618_1109
$$ #$$PROBENAME=PA BBO 400S1 BBF-H-D-05 Z
$$ #$$SHIMID=313232
$$ #
$$ # Active Shim Gradients
$$ #
$$ Z           		2573            
$$ Z2          		-561            
$$ Z3          		1870            
$$ Z4          		-16985          
$$ Z5          		1036            
$$ Z6          		8313            
$$ X           		11633           
$$ XZ          		-1877           
$$ XZ2         		2633            
$$ XZ3         		-2333           
$$ Y           		8692            
$$ YZ          		2010            
$$ YZ2         		-2540           
$$ YZ3         		1515            
$$ XY          		-8225           
$$ XYZ         		2122            
$$ (X2-Y2)     		-1821           
$$ (X2-Y2)Z    		3297            
$$ X3          		1537            
$$ Y3          		-2491           
$$ #
$$ # Lock Parameter
$$ #
$$ FIELD		-578.974
$$ LOCKPHASE		137.143 
$$ LOCKPOWER		-30.000 
$$ LOCKGAIN		116.752 
$$ LOCKDC		-57.000 
$$ LOCKSHIFT		7.240   
$$ LOOPGAIN		-12.000 
$$ LOOPTIME		0.400   
$$ LOOPFILTER		100.000 
$$ #
$$ IEEE64_VERSION_CODE 1
$$ #
$$ # Shim currents 
$$ #
$$ SHIM_SETTING [1 ]  1248.13043188   
$$ SHIM_SETTING [2 ]  -277.74318359   
$$ SHIM_SETTING [3 ]  983.83833336    
$$ SHIM_SETTING [4 ]  -8933.95081359  
$$ SHIM_SETTING [5 ]  544.97920027    
$$ SHIM_SETTING [6 ]  6118.82739643   
$$ SHIM_SETTING [7 ]  -987.30338888   
$$ SHIM_SETTING [8 ]  1384.90131430   
$$ SHIM_SETTING [9 ]  -957.66997213   
$$ SHIM_SETTING [10]  -4326.12360383  
$$ SHIM_SETTING [11]  4571.90280834   
$$ SHIM_SETTING [12]  1057.08053512   
$$ SHIM_SETTING [13]  -1336.16307234  
$$ SHIM_SETTING [14]  796.91356052    
$$ SHIM_SETTING [15]  4372.47100000   
$$ SHIM_SETTING [16]  1733.99907053   
$$ SHIM_SETTING [17]  -1227.33610735  
$$ SHIM_SETTING [18]  1116.05924789   
$$ SHIM_SETTING [19]  808.34919859    
$$ SHIM_SETTING [20]  -1310.38616154  
##$RELAX= 
##$BRUKER FILE EXP=uxnmr.par
$$ ##TITLE= Parameter file, TopSpin 3.6.2
$$ ##JCAMPDX= 5.0
$$ ##DATATYPE= Parameter Values
$$ ##NPOINTS= 77	$$ modification sequence number
$$ ##ORIGIN= Bruker BioSpin GmbH
$$ ##OWNER= Administrator
$$ $$ 2024-09-27 17:30:37.679 +0100  nmrsu@pink.ch.man.ac.uk
$$ $$ /opt/topspin3.6.2b/conf/instr/spect/uxnmr.par
$$ $$ process /opt/topspin3.6.2b/prog/mod/cfserverav3
$$ ##$ACB= 0
$$ ##$ACBTAT= (0..23)
$$ 0 66 66 50 0 0 0 0 0 0 0 0 0 0 0 0 0 0 0 0 0 0 0 0
$$ ##$ACBTBA= (0..23)
$$ 0 1 1 0 0 0 0 0 0 0 0 0 0 0 0 0 0 0 0 0 0 0 0 0
$$ ##$ACBTBLK= (0..23)
$$ 0 1 1 0 0 0 0 0 0 0 0 0 0 0 0 0 0 0 0 0 0 0 0 0
$$ ##$ACBTCTL= (0..23)
$$ 0 0 0 0 0 0 0 0 0 0 0 0 0 0 0 0 0 0 0 0 0 0 0 0
$$ ##$ACBTDI= (0..23)
$$ 0 102 102 72 0 0 0 0 0 0 0 0 0 0 0 0 0 0 0 0 0 0 0 0
$$ ##$ACBTDM= (0..23)
$$ 0 10 10 0 0 0 0 0 0 0 0 0 0 0 0 0 0 0 0 0 0 0 0 0
$$ ##$ACBTFHI= (0..23)
$$ 0 400 400 0 0 0 0 0 0 0 0 0 0 0 0 0 0 0 0 0 0 0 0 0
$$ ##$ACBTFL= (0..23)
$$ 0 73 74 8 0 0 0 0 0 0 0 0 0 0 0 0 0 0 0 0 0 0 0 0
$$ ##$ACBTFLO= (0..23)
$$ 0 14 14 0 0 0 0 0 0 0 0 0 0 0 0 0 0 0 0 0 0 0 0 0
$$ ##$ACBTINP= (0..23)
$$ 0 1 2 3 0 0 0 0 0 0 0 0 0 0 0 0 0 0 0 0 0 0 0 0
$$ ##$ACBTOUT= (0..23)
$$ 0 1 2 0 0 0 0 0 0 0 0 0 0 0 0 0 0 0 0 0 0 0 0 0
$$ ##$ACBTPO= (0..23)
$$ 0 150000 60000 20000 0 0 0 0 0 0 0 0 0 0 0 0 0 0 0 0 0 0 0 0
$$ ##$ACBTPW= (0..23)
$$ 0 10 10 0 0 0 0 0 0 0 0 0 0 0 0 0 0 0 0 0 0 0 0 0
$$ ##$ACBTSB= (0..23)
$$ 0 0 0 0 0 0 0 0 0 0 0 0 0 0 0 0 0 0 0 0 0 0 0 0
$$ ##$ACBTSDT= (0..23)
$$ 0 -1 -1 -1 0 0 0 0 0 0 0 0 0 0 0 0 0 0 0 0 0 0 0 0
$$ ##$ACBTY= <no>
$$ ##$AMPDFLT= no
$$ ##$AQSBDCH= (0..95)
$$ 0 0 0 0 0 0 0 0 255 255 255 255 255 255 255 255 255 255 255 255 255 255
$$ 255 255 255 255 255 255 255 255 255 255 255 255 255 255 255 255 255 255
$$ 255 255 255 255 255 255 255 255 255 255 255 255 255 255 255 255 255 255
$$ 255 255 255 255 255 255 255 255 255 255 255 255 255 255 255 255 255 255
$$ 255 255 255 255 255 255 255 255 255 255 255 255 255 255 255 255 255 255
$$ 255 255
$$ ##$AQSBDHW= (0..95)
$$ 3 1 8 8 0 0 0 0 255 255 255 255 255 255 255 255 255 255 255 255 255 255
$$ 255 255 255 255 255 255 255 255 255 255 255 255 255 255 255 255 255 255
$$ 255 255 255 255 255 255 255 255 255 255 255 255 255 255 255 255 255 255
$$ 255 255 255 255 255 255 255 255 255 255 255 255 255 255 255 255 255 255
$$ 255 255 255 255 255 255 255 255 255 255 255 255 255 255 255 255 255 255
$$ 255 255
$$ ##$AQSBDID= (0..95)
$$ 82 88 83 83 65 80 66 66 255 255 255 255 255 255 255 255 255 255 255 255
$$ 255 255 255 255 255 255 255 255 255 255 255 255 255 255 255 255 255 255
$$ 255 255 255 255 255 255 255 255 255 255 255 255 255 255 255 255 255 255
$$ 255 255 255 255 255 255 255 255 255 255 255 255 255 255 255 255 255 255
$$ 255 255 255 255 255 255 255 255 255 255 255 255 255 255 255 255 255 255
$$ 255 255 255 255
$$ ##$AQSBDNO= (0..95)
$$ 1 1 1 2 1 1 1 1 255 255 255 255 255 255 255 255 255 255 255 255 255 255
$$ 255 255 255 255 255 255 255 255 255 255 255 255 255 255 255 255 255 255
$$ 255 255 255 255 255 255 255 255 255 255 255 255 255 255 255 255 255 255
$$ 255 255 255 255 255 255 255 255 255 255 255 255 255 255 255 255 255 255
$$ 255 255 255 255 255 255 255 255 255 255 255 255 255 255 255 255 255 255
$$ 255 255
$$ ##$AQSBDSL= (0..95)
$$ 2 3 4 5 9 21 255 1 255 255 255 255 255 255 255 255 255 255 255 255 255
$$ 255 255 255 255 255 255 255 255 255 255 255 255 255 255 255 255 255 255
$$ 255 255 255 255 255 255 255 255 255 255 255 255 255 255 255 255 255 255
$$ 255 255 255 255 255 255 255 255 255 255 255 255 255 255 255 255 255 255
$$ 255 255 255 255 255 255 255 255 255 255 255 255 255 255 255 255 255 255
$$ 255 255 255
$$ ##$AQSBDTY= (0..95)
$$ 114 2 17 17 5 207 209 7 255 255 255 255 255 255 255 255 255 255 255 255
$$ 255 255 255 255 255 255 255 255 255 255 255 255 255 255 255 255 255 255
$$ 255 255 255 255 255 255 255 255 255 255 255 255 255 255 255 255 255 255
$$ 255 255 255 255 255 255 255 255 255 255 255 255 255 255 255 255 255 255
$$ 255 255 255 255 255 255 255 255 255 255 255 255 255 255 255 255 255 255
$$ 255 255 255 255
$$ ##$AQSBUAD= (0..95)
$$ 16 52 36 37 54 33 32 32 255 255 255 255 255 255 255 255 255 255 255 255
$$ 255 255 255 255 255 255 255 255 255 255 255 255 255 255 255 255 255 255
$$ 255 255 255 255 255 255 255 255 255 255 255 255 255 255 255 255 255 255
$$ 255 255 255 255 255 255 255 255 255 255 255 255 255 255 255 255 255 255
$$ 255 255 255 255 255 255 255 255 255 255 255 255 255 255 255 255 255 255
$$ 255 255 255 255
$$ ##$AQSECL= (0..95)
$$ 3 5 2 2 6 1 2 255 255 255 255 255 255 255 255 255 255 255 255 255 255 255
$$ 255 255 255 255 255 255 255 255 255 255 255 255 255 255 255 255 255 255
$$ 255 255 255 255 255 255 255 255 255 255 255 255 255 255 255 255 255 255
$$ 255 255 255 255 255 255 255 255 255 255 255 255 255 255 255 255 255 255
$$ 255 255 255 255 255 255 255 255 255 255 255 255 255 255 255 255 255 255
$$ 255 255
$$ ##$AQSECLS= (0..95)
$$ 0 0 0 0 0 0 1 255 255 255 255 255 255 255 255 255 255 255 255 255 255 255
$$ 255 255 255 255 255 255 255 255 255 255 255 255 255 255 255 255 255 255
$$ 255 255 255 255 255 255 255 255 255 255 255 255 255 255 255 255 255 255
$$ 255 255 255 255 255 255 255 255 255 255 255 255 255 255 255 255 255 255
$$ 255 255 255 255 255 255 255 255 255 255 255 255 255 255 255 255 255 255
$$ 255 255
$$ ##$AQSETH1= <no>
$$ ##$AQSETH2= <no>
$$ ##$AQSSPLT= no
$$ ##$ATT19F= (0..1)
$$ 0 0
$$ ##$ATT1H= (0..1)
$$ 0 0
$$ ##$ATT3H= (0..1)
$$ 0 0
$$ ##$ATTX= (0..1)
$$ 0 0
$$ ##$ATTY= (0..1)
$$ 0 0
$$ ##$ATTZ= (0..1)
$$ 0 0
$$ ##$BACSAIR= yes
$$ ##$BACSCAP= 0
$$ ##$BACSDEL= 10
$$ ##$BACSFCM= no
$$ ##$BACSOPT= <>
$$ ##$BACSTY= <no>
$$ ##$BARPTY= <no>
$$ ##$BFREQ= 400.17
$$ ##$BGAETH= (0..9)
$$ <no> <no> <no> <no> <no> <no> <no> <no> <no> <no>
$$ ##$BIRDS= yes
$$ ##$BMPC= 0
$$ ##$BMPCTY= <no>
$$ ##$BPSUTY= <no>
$$ ##$BSMS= 2
$$ ##$BSMS19FLock= no
$$ ##$BSMSETH= <149.236.99.21>
$$ ##$BSMSTY= <no>
$$ ##$BgaChFac2= (0..7)
$$ 0 0 0 0 0 0 0 0
$$ ##$BgaChMap= (0..7)
$$ 0 0 0 0 0 0 0 0
$$ ##$BgaChMaxv= (0..7)
$$ 0 0 0 0 0 0 0 0
$$ ##$BgaChRouting= (0..63)
$$ 0 0 0 0 0 0 0 0 0 0 0 0 0 0 0 0 0 0 0 0 0 0 0 0 0 0 0 0 0 0 0 0 0 0 0 0
$$ 0 0 0 0 0 0 0 0 0 0 0 0 0 0 0 0 0 0 0 0 0 0 0 0 0 0 0 0
$$ ##$BgaChShimMap= (0..7)
$$ 0 0 0 0 0 0 0 0
$$ ##$BgaChShimMaxv= (0..7)
$$ 0 0 0 0 0 0 0 0
$$ ##$Bla01Eth= <no>
$$ ##$Bla01Nam= <BLA2BB 150/60 20-400>
$$ ##$Bla01PN= <W1345049>
$$ ##$Bla01SN= <1736>
$$ ##$Bla02Eth= <no>
$$ ##$Bla02Nam= <2HTX in BSMS>
$$ ##$Bla02PN= <>
$$ ##$Bla02SN= <>
$$ ##$Bla03Eth= <no>
$$ ##$Bla03Nam= <>
$$ ##$Bla03PN= <>
$$ ##$Bla03SN= <>
$$ ##$Bla04Eth= <no>
$$ ##$Bla04Nam= <>
$$ ##$Bla04PN= <>
$$ ##$Bla04SN= <>
$$ ##$Bla05Eth= <no>
$$ ##$Bla05Nam= <>
$$ ##$Bla05PN= <>
$$ ##$Bla05SN= <>
$$ ##$Bla06Eth= <no>
$$ ##$Bla06Nam= <>
$$ ##$Bla06PN= <>
$$ ##$Bla06SN= <>
$$ ##$Bla07Eth= <no>
$$ ##$Bla07Nam= <>
$$ ##$Bla07PN= <>
$$ ##$Bla07SN= <>
$$ ##$Bla08Eth= <no>
$$ ##$Bla08Nam= <>
$$ ##$Bla08PN= <>
$$ ##$Bla08SN= <>
$$ ##$BlaEth= (0..9)
$$ <no> <no> <no> <no> <no> <no> <no> <no> <> <>
$$ ##$BlaNam= (0..9)
$$ <BLA2BB 150/60 20-400> <2HTX in BSMS> <> <> <> <> <> <> <> <>
$$ ##$BlaPN= (0..9)
$$ <W1345049> <> <> <> <> <> <> <> <> <>
$$ ##$BlaSN= (0..9)
$$ <1736> <> <> <> <> <> <> <> <> <>
$$ ##$BsmsAuxEth= <no>
$$ ##$CFASMOD= (0..7)
$$ 1 1 1 1 1 1 1 1
$$ ##$CFASMUL= (0..7)
$$ 1 1 1 1 1 1 1 1
$$ ##$CNFTXDR= (0..7)
$$ 6 6 0 0 0 0 0 0
$$ ##$COMDIG2= 0
$$ ##$CPDBTY= <no>
$$ ##$CRCOTY= <no>
$$ ##$CSW1= (0..31)
$$ 1 1 1 2 3 0 0 0 0 0 0 0 0 0 0 0 0 0 0 0 0 0 0 0 0 0 0 0 0 0 0 0
$$ ##$CSW2= (0..31)
$$ 0 2 2 0 0 0 0 0 0 0 0 0 0 0 0 0 0 0 0 0 0 0 0 0 0 0 0 0 0 0 0 0
$$ ##$CSWNUM= (0..7)
$$ 4 1 0 0 0 0 0 0
$$ ##$ConsolePnSn= <>
$$ ##$CryoCoolUnitEth= <no>
$$ ##$CryoProAccPnSn= <>
$$ ##$Ctb1Eth= <no>
$$ ##$CubeEth= (0..7)
$$ <no> <no> <no> <no> <no> <no> <no> <no>
$$ ##$CustRegisterNo= <>
$$ ##$DATSTAT= no
$$ ##$DIGI140= (0..7)
$$ 0 0 0 0 0 0 0 0
$$ ##$DIGIB12= (0..7)
$$ 0 0 0 0 0 0 0 0
$$ ##$DIGIB16= (0..7)
$$ 0 0 0 0 0 0 0 0
$$ ##$DIGIFA= (0..7)
$$ 0 0 0 0 0 0 0 0
$$ ##$DIGIFOURIER= 0
$$ ##$DIGIHA= (0..7)
$$ 0 0 0 0 0 0 0 0
$$ ##$DIGIHAF= (0..7)
$$ 0 0 0 0 0 0 0 0
$$ ##$DIGIHRD= (0..7)
$$ 0 0 0 0 0 0 0 0
$$ ##$DIGIIA= (0..7)
$$ 0 0 0 0 0 0 0 0
$$ ##$DIGIO16= (0..7)
$$ 0 0 0 0 0 0 0 0
$$ ##$DIGISA= (0..7)
$$ 0 0 0 0 0 0 0 0
$$ ##$DIGISAF= (0..7)
$$ 0 0 0 0 0 0 0 0
$$ ##$DIGISL= (0..7)
$$ 0 0 0 0 0 0 0 0
$$ ##$DIGITYI= (0..7)
$$ 0 0 0 0 0 0 0 0
$$ ##$DIGITYP= (0..7)
$$ 0 0 0 0 0 0 0 0
$$ ##$DIGITZ= 0
$$ ##$DPPFAC= 1
$$ ##$DRMSETH= <no>
$$ ##$DRU= yes
$$ ##$DRUETH= (0..33)
$$ <no> <149.236.99.89> <no> <no> <no> <no> <no> <no> <no> <no> <no> <no>
$$ <no> <no> <no> <no> <no> <no> <no> <no> <no> <no> <no> <no> <no> <no> <no>
$$ <no> <no> <no> <no> <no> <no> <>
$$ ##$Description= <AVIII400>
$$ ##$DppType= 0
$$ ##$FCUMEM= (0..7)
$$ 16777208 16777208 0 0 0 0 0 0
$$ ##$FCUPAL= (0..7)
$$ 0 0 0 0 0 0 0 0
$$ ##$FGSVTY= <no>
$$ ##$FQMIX= 0
$$ ##$FUNCMOD= <>
$$ ##$FourPeriBdEth= <no>
$$ ##$FourShimBdEth= <no>
$$ ##$FourierPicsCon= no
$$ ##$GCUTYPE= 10
$$ ##$GCUTYPE2= 0
$$ ##$GPREDEL= 0
$$ ##$GPSCUTY= <no>
$$ ##$GRADRES= 5
$$ ##$GTUTY= <no>
$$ ##$GcConn= (0..1)
$$ 1 0
$$ ##$GradAmpGain= (0..7)
$$ 0 0 0 0 0 0 0 0
$$ ##$GradAmpMaxCurX= (0..7)
$$ 0 0 0 0 0 0 0 0
$$ ##$GradAmpMaxCurY= (0..7)
$$ 0 0 0 0 0 0 0 0
$$ ##$GradAmpMaxCurZ= (0..7)
$$ 9.99999904632568 0 0 0 0 0 0 0
$$ ##$GradAmpName= (0..7)
$$ <GAB in BSMS> <> <> <> <> <> <> <>
$$ ##$GradAmpPN= (0..7)
$$ <> <> <> <> <> <> <> <>
$$ ##$GradAmpSN= (0..7)
$$ <> <> <> <> <> <> <> <>
$$ ##$GradAmpType= (0..7)
$$ 2 0 0 0 0 0 0 0
$$ ##$GradPowClkCtrl= 0
$$ ##$GradPowClkTime= 0
$$ ##$GradPowImax= 0
$$ ##$GradPowType= 0
$$ ##$GradPowVmax= 0
$$ ##$HDIETH= (0..5)
$$ <> <no> <no> <no> <no> <>
$$ ##$HFAC= 3
$$ ##$HPCU= 0
$$ ##$HPCUTY= <no>
$$ ##$HPTXLP= (0..3)
$$ -1 -1 -1 -1
$$ ##$HPTXPI= (0..3)
$$ 0 0 0 0
$$ ##$HPTXPO= (0..3)
$$ 0 0 0 0
$$ ##$HPTXTY= (0..3)
$$ 0 0 0 0
$$ ##$HpprCoverType= 1
$$ ##$IF451= 0
$$ ##$IFREQ= 1
$$ ##$INJPTY= <no>
$$ ##$INTFPR= 0
$$ ##$IPSOETH= <149.236.99.141>
$$ ##$IPSOTYPE= 2
$$ ##$LDUETH= <no>
$$ ##$LOCKCONF= <DL>
$$ ##$LOCKTY= <no>
$$ ##$LOCSWID= 0
$$ ##$LOCSWIF= 0
$$ ##$LVDSSPLITETH= (0..5)
$$ <> <no> <no> <no> <no> <>
$$ ##$Location= <University of Manchester>
$$ ##$M2FAC= 0
$$ ##$MAS= 0
$$ ##$MASETIME= 10
$$ ##$MASITIME= 10
$$ ##$MASTY= <no>
$$ ##$MAS_CT= 0
$$ ##$MAS_SG= 0
$$ ##$MAS_TO= 0
$$ ##$MEMPRM= 0
$$ ##$MHFAC= 0
$$ ##$MXFAC= 0
$$ ##$MagnCoilPnSn= <>
$$ ##$MagnDewarPnSn= <>
$$ ##$MasEth= <no>
$$ ##$NAMPD= (0..17)
$$ <> <1H/2H 1H> <1H/2H 2H> <XBB19F 2HS> <> <> <> <> <> <> <> <> <> <> <>
$$ <> <> <>
$$ ##$NFCU= 2
$$ ##$NFRED= 0
$$ ##$NMRCH= 2
$$ ##$NMRMEM= 16384
$$ ##$NPSGU= 0
$$ ##$NRCU= 1
$$ ##$NROUT= 1
$$ ##$NSGU= 2
$$ ##$OrderNo= <SAP 5070401>
$$ ##$PAMPF1= (0..15)
$$ 75 24 96 64 0 0 0 0 0 0 0 0 0 0 0 0
$$ ##$PAMPF2= (0..15)
$$ 0 0 0 0 0 0 0 0 0 0 0 0 0 0 0 0
$$ ##$PAMPF3= (0..15)
$$ 0 0 0 0 0 0 0 0 0 0 0 0 0 0 0 0
$$ ##$PAMPF4= (0..15)
$$ 0 0 0 0 0 0 0 0 0 0 0 0 0 0 0 0
$$ ##$PAMPF5= (0..15)
$$ 0 0 0 0 0 0 0 0 0 0 0 0 0 0 0 0
$$ ##$PAMPF6= (0..15)
$$ 0 0 0 0 0 0 0 0 0 0 0 0 0 0 0 0
$$ ##$PAMPF7= (0..15)
$$ 0 0 0 0 0 0 0 0 0 0 0 0 0 0 0 0
$$ ##$PAMPF8= (0..15)
$$ 0 0 0 0 0 0 0 0 0 0 0 0 0 0 0 0
$$ ##$PH4= 0
$$ ##$PHF4TY= <no>
$$ ##$POWCHK= yes
$$ ##$PRAMD1= (0..7)
$$ 2 0 0 536870912 0 0 0 0
$$ ##$PRAMD10= (0..7)
$$ 0 0 0 0 0 0 0 0
$$ ##$PRAMD11= (0..7)
$$ 0 0 0 0 0 0 0 0
$$ ##$PRAMD12= (0..7)
$$ 0 0 0 0 0 0 0 0
$$ ##$PRAMD13= (0..7)
$$ 0 0 0 0 0 0 0 0
$$ ##$PRAMD14= (0..7)
$$ 0 0 0 0 0 0 0 0
$$ ##$PRAMD15= (0..7)
$$ 0 0 0 0 0 0 0 0
$$ ##$PRAMD16= (0..7)
$$ 0 0 0 0 0 0 0 0
$$ ##$PRAMD17= (0..7)
$$ 0 0 0 0 0 0 0 0
$$ ##$PRAMD18= (0..7)
$$ 0 0 0 0 0 0 0 0
$$ ##$PRAMD19= (0..7)
$$ 0 0 0 0 0 0 0 0
$$ ##$PRAMD2= (0..7)
$$ 0 1048576 0 536870912 0 1048576 0 536870912
$$ ##$PRAMD20= (0..7)
$$ 0 0 0 0 0 0 0 0
$$ ##$PRAMD21= (0..7)
$$ 0 0 0 0 0 0 0 0
$$ ##$PRAMD3= (0..7)
$$ 2147483644 2131230719 2147483647 603979775 0 0 0 0
$$ ##$PRAMD4= (0..7)
$$ 0 0 0 0 0 0 0 0
$$ ##$PRAMD5= (0..7)
$$ 0 0 0 0 0 0 0 0
$$ ##$PRAMD6= (0..7)
$$ 0 0 0 0 0 0 0 0
$$ ##$PRAMD7= (0..7)
$$ 0 0 0 0 0 0 0 0
$$ ##$PRAMD8= (0..7)
$$ 0 0 0 0 0 0 0 0
$$ ##$PRAMD9= (0..7)
$$ 0 0 0 0 0 0 0 0
$$ ##$PRAMLED= (0..1)
$$ 15 15
$$ ##$PRAMP= (0..9)
$$ <> <tty10> <no> <no> <no> <no> <no> <no> <no> <>
$$ ##$PRAMPTP= 1
$$ ##$PREEMPTYPE= 0
$$ ##$PREPTY= <no>
$$ ##$PREREC= (0..15)
$$ 0 1 1 1 0 0 0 0 0 0 0 0 0 0 0 0
$$ ##$PRESHLD= 0
$$ ##$PTS160= -1
$$ ##$PTSA2X= (0..7)
$$ 0 0 0 0 0 0 0 0
$$ ##$PTSF2X= (0..7)
$$ 0 0 0 0 0 0 0 0
$$ ##$PTSFMX= (0..19)
$$ 429.9 429.9 0 0 0 0 0 0 0 0 0 0 0 0 0 0 0 0 0 0
$$ ##$PULCHK= no
$$ ##$PerMagATempSens= no
$$ ##$PerMagEth= <no>
$$ ##$PerMagFluxSens= no
$$ ##$PerMagMTempSens= no
$$ ##$PramDutyCycPerc= (0..15)
$$ 2 2 2 0 0 0 0 0 0 0 0 0 0 0 0 0
$$ ##$PramPeakPowerW= (0..15)
$$ 150 300 500 0 0 0 0 0 0 0 0 0 0 0 0 0
$$ ##$PramPowerSwitch= (0..15)
$$ 0 0 0 0 0 0 0 0 0 0 0 0 0 0 0 0
$$ ##$PramPulWidthMs= (0..15)
$$ 0.02 0.1 0.1 0 0 0 0 0 0 0 0 0 0 0 0 0
$$ ##$PreampMod01PN= <Z003959>
$$ ##$PreampMod01SN= <00409>
$$ ##$PreampMod02PN= <Z003959>
$$ ##$PreampMod02SN= <00409>
$$ ##$PreampMod03PN= <Z003504>
$$ ##$PreampMod03SN= <00403>
$$ ##$PreampMod04PN= <>
$$ ##$PreampMod04SN= <>
$$ ##$PreampMod05PN= <>
$$ ##$PreampMod05SN= <>
$$ ##$PreampMod06PN= <>
$$ ##$PreampMod06SN= <>
$$ ##$PreampMod07PN= <>
$$ ##$PreampMod07SN= <>
$$ ##$PreampMod08PN= <>
$$ ##$PreampMod08SN= <>
$$ ##$PreampMod09PN= <>
$$ ##$PreampMod09SN= <>
$$ ##$PreampMod10PN= <>
$$ ##$PreampMod10SN= <>
$$ ##$PreampMod11PN= <>
$$ ##$PreampMod11SN= <>
$$ ##$PreampMod12PN= <>
$$ ##$PreampMod12SN= <>
$$ ##$PreampMod13PN= <>
$$ ##$PreampMod13SN= <>
$$ ##$PreampMod14PN= <>
$$ ##$PreampMod14SN= <>
$$ ##$PreampMod15PN= <>
$$ ##$PreampMod15SN= <>
$$ ##$PreampMod16PN= <>
$$ ##$PreampMod16SN= <>
$$ ##$PreampModBisDat= (0..15)
$$ 20070123 20070123 20070301 0 0 0 0 0 0 0 0 0 0 0 0 0
$$ ##$PreampModPN= (0..17)
$$ <Z003959> <Z003959> <Z003504> <> <> <> <> <> <> <> <> <> <> <> <> <> <>
$$ <>
$$ ##$PreampModSN= (0..17)
$$ <00403> <00403> <00400> <> <> <> <> <> <> <> <> <> <> <> <> <> <> <>
$$ ##$ProdigyEth= <no>
$$ ##$RCUCDS= (0..7)
$$ 0 0 0 0 0 0 0 0
$$ ##$RCUCFS= (0..7)
$$ 0 0 0 0 0 0 0 0
$$ ##$RCUCSS= (0..7)
$$ 0 0 0 0 0 0 0 0
$$ ##$RCUI2C1= (0..7)
$$ 0 0 0 0 0 0 0 0
$$ ##$RCUI2C2= (0..7)
$$ 0 0 0 0 0 0 0 0
$$ ##$RCUI2C3= (0..7)
$$ 0 0 0 0 0 0 0 0
$$ ##$RCUI2C4= (0..7)
$$ 0 0 0 0 0 0 0 0
$$ ##$RCUI2C5= (0..7)
$$ 0 0 0 0 0 0 0 0
$$ ##$RCUI2C6= (0..7)
$$ 0 0 0 0 0 0 0 0
$$ ##$RCUI2C7= (0..7)
$$ 0 0 0 0 0 0 0 0
$$ ##$RCUI2C8= (0..7)
$$ 0 0 0 0 0 0 0 0
$$ ##$RDCU= 0
$$ ##$RFSINPUT= (0..1)
$$ 0 0
$$ ##$RFSVTY= <no>
$$ ##$RGTYPE= (0..31)
$$ 9 0 0 0 0 0 0 0 0 0 0 0 0 0 0 0 0 0 0 0 0 0 0 0 0 0 0 0 0 0 0 0
$$ ##$RG_max= (0..31)
$$ 2050 -1 -1 -1 -1 -1 -1 -1 -1 -1 -1 -1 -1 -1 -1 -1 -1 -1 -1 -1 -1 -1 -1
$$ -1 -1 -1 -1 -1 -1 -1 -1 -1
$$ ##$RG_min= (0..31)
$$ 0.25 -1 -1 -1 -1 -1 -1 -1 -1 -1 -1 -1 -1 -1 -1 -1 -1 -1 -1 -1 -1 -1 -1
$$ -1 -1 -1 -1 -1 -1 -1 -1 -1
$$ ##$RG_tab1= (0..255)
$$ 0.25 0.28 0.32 0.35 0.4 0.44 0.5 0.56 0.64 0.7 0.8 0.89 1 1.12 1.28 1.4
$$ 1.6 1.78 2 2.25 2.56 2.8 3.2 3.56 4 4.5 5 5.6 6.35 7.12 8 9 10 11.3 12.7
$$ 14.2 16 18 20.2 22.6 25.4 28.5 32 36 40.3 45.2 50.8 57 64 71.8 80.6 90.5
$$ 101 114 128 144 161 181 203 228 256 287 322 362 406 456 512 575 645 724
$$ 812 912 1030 1150 1290 1440 1620 1820 2050 -1 -1 -1 -1 -1 -1 -1 -1 -1 -1
$$ -1 -1 -1 -1 -1 -1 -1 -1 -1 -1 -1 -1 -1 -1 -1 -1 -1 -1 -1 -1 -1 -1 -1 -1
$$ -1 -1 -1 -1 -1 -1 -1 -1 -1 -1 -1 -1 -1 -1 -1 -1 -1 -1 -1 -1 -1 -1 -1 -1
$$ -1 -1 -1 -1 -1 -1 -1 -1 -1 -1 -1 -1 -1 -1 -1 -1 -1 -1 -1 -1 -1 -1 -1 -1
$$ -1 -1 -1 -1 -1 -1 -1 -1 -1 -1 -1 -1 -1 -1 -1 -1 -1 -1 -1 -1 -1 -1 -1 -1
$$ -1 -1 -1 -1 -1 -1 -1 -1 -1 -1 -1 -1 -1 -1 -1 -1 -1 -1 -1 -1 -1 -1 -1 -1
$$ -1 -1 -1 -1 -1 -1 -1 -1 -1 -1 -1 -1 -1 -1 -1 -1 -1 -1 -1 -1 -1 -1 -1 -1
$$ -1 -1 -1 -1 -1 -1 -1 -1 -1 -1 -1 -1 -1 -1 -1 -1 -1 -1 -1 -1 -1 -1 -1
$$ ##$RG_tab2= (0..255)
$$ -1 -1 -1 -1 -1 -1 -1 -1 -1 -1 -1 -1 -1 -1 -1 -1 -1 -1 -1 -1 -1 -1 -1 -1
$$ -1 -1 -1 -1 -1 -1 -1 -1 -1 -1 -1 -1 -1 -1 -1 -1 -1 -1 -1 -1 -1 -1 -1 -1
$$ -1 -1 -1 -1 -1 -1 -1 -1 -1 -1 -1 -1 -1 -1 -1 -1 -1 -1 -1 -1 -1 -1 -1 -1
$$ -1 -1 -1 -1 -1 -1 -1 -1 -1 -1 -1 -1 -1 -1 -1 -1 -1 -1 -1 -1 -1 -1 -1 -1
$$ -1 -1 -1 -1 -1 -1 -1 -1 -1 -1 -1 -1 -1 -1 -1 -1 -1 -1 -1 -1 -1 -1 -1 -1
$$ -1 -1 -1 -1 -1 -1 -1 -1 -1 -1 -1 -1 -1 -1 -1 -1 -1 -1 -1 -1 -1 -1 -1 -1
$$ -1 -1 -1 -1 -1 -1 -1 -1 -1 -1 -1 -1 -1 -1 -1 -1 -1 -1 -1 -1 -1 -1 -1 -1
$$ -1 -1 -1 -1 -1 -1 -1 -1 -1 -1 -1 -1 -1 -1 -1 -1 -1 -1 -1 -1 -1 -1 -1 -1
$$ -1 -1 -1 -1 -1 -1 -1 -1 -1 -1 -1 -1 -1 -1 -1 -1 -1 -1 -1 -1 -1 -1 -1 -1
$$ -1 -1 -1 -1 -1 -1 -1 -1 -1 -1 -1 -1 -1 -1 -1 -1 -1 -1 -1 -1 -1 -1 -1 -1
$$ -1 -1 -1 -1 -1 -1 -1 -1 -1 -1 -1 -1 -1 -1 -1 -1
$$ ##$RG_tab3= (0..255)
$$ -1 -1 -1 -1 -1 -1 -1 -1 -1 -1 -1 -1 -1 -1 -1 -1 -1 -1 -1 -1 -1 -1 -1 -1
$$ -1 -1 -1 -1 -1 -1 -1 -1 -1 -1 -1 -1 -1 -1 -1 -1 -1 -1 -1 -1 -1 -1 -1 -1
$$ -1 -1 -1 -1 -1 -1 -1 -1 -1 -1 -1 -1 -1 -1 -1 -1 -1 -1 -1 -1 -1 -1 -1 -1
$$ -1 -1 -1 -1 -1 -1 -1 -1 -1 -1 -1 -1 -1 -1 -1 -1 -1 -1 -1 -1 -1 -1 -1 -1
$$ -1 -1 -1 -1 -1 -1 -1 -1 -1 -1 -1 -1 -1 -1 -1 -1 -1 -1 -1 -1 -1 -1 -1 -1
$$ -1 -1 -1 -1 -1 -1 -1 -1 -1 -1 -1 -1 -1 -1 -1 -1 -1 -1 -1 -1 -1 -1 -1 -1
$$ -1 -1 -1 -1 -1 -1 -1 -1 -1 -1 -1 -1 -1 -1 -1 -1 -1 -1 -1 -1 -1 -1 -1 -1
$$ -1 -1 -1 -1 -1 -1 -1 -1 -1 -1 -1 -1 -1 -1 -1 -1 -1 -1 -1 -1 -1 -1 -1 -1
$$ -1 -1 -1 -1 -1 -1 -1 -1 -1 -1 -1 -1 -1 -1 -1 -1 -1 -1 -1 -1 -1 -1 -1 -1
$$ -1 -1 -1 -1 -1 -1 -1 -1 -1 -1 -1 -1 -1 -1 -1 -1 -1 -1 -1 -1 -1 -1 -1 -1
$$ -1 -1 -1 -1 -1 -1 -1 -1 -1 -1 -1 -1 -1 -1 -1 -1
$$ ##$RG_tab4= (0..255)
$$ -1 -1 -1 -1 -1 -1 -1 -1 -1 -1 -1 -1 -1 -1 -1 -1 -1 -1 -1 -1 -1 -1 -1 -1
$$ -1 -1 -1 -1 -1 -1 -1 -1 -1 -1 -1 -1 -1 -1 -1 -1 -1 -1 -1 -1 -1 -1 -1 -1
$$ -1 -1 -1 -1 -1 -1 -1 -1 -1 -1 -1 -1 -1 -1 -1 -1 -1 -1 -1 -1 -1 -1 -1 -1
$$ -1 -1 -1 -1 -1 -1 -1 -1 -1 -1 -1 -1 -1 -1 -1 -1 -1 -1 -1 -1 -1 -1 -1 -1
$$ -1 -1 -1 -1 -1 -1 -1 -1 -1 -1 -1 -1 -1 -1 -1 -1 -1 -1 -1 -1 -1 -1 -1 -1
$$ -1 -1 -1 -1 -1 -1 -1 -1 -1 -1 -1 -1 -1 -1 -1 -1 -1 -1 -1 -1 -1 -1 -1 -1
$$ -1 -1 -1 -1 -1 -1 -1 -1 -1 -1 -1 -1 -1 -1 -1 -1 -1 -1 -1 -1 -1 -1 -1 -1
$$ -1 -1 -1 -1 -1 -1 -1 -1 -1 -1 -1 -1 -1 -1 -1 -1 -1 -1 -1 -1 -1 -1 -1 -1
$$ -1 -1 -1 -1 -1 -1 -1 -1 -1 -1 -1 -1 -1 -1 -1 -1 -1 -1 -1 -1 -1 -1 -1 -1
$$ -1 -1 -1 -1 -1 -1 -1 -1 -1 -1 -1 -1 -1 -1 -1 -1 -1 -1 -1 -1 -1 -1 -1 -1
$$ -1 -1 -1 -1 -1 -1 -1 -1 -1 -1 -1 -1 -1 -1 -1 -1
$$ ##$RG_tab5= (0..255)
$$ -1 -1 -1 -1 -1 -1 -1 -1 -1 -1 -1 -1 -1 -1 -1 -1 -1 -1 -1 -1 -1 -1 -1 -1
$$ -1 -1 -1 -1 -1 -1 -1 -1 -1 -1 -1 -1 -1 -1 -1 -1 -1 -1 -1 -1 -1 -1 -1 -1
$$ -1 -1 -1 -1 -1 -1 -1 -1 -1 -1 -1 -1 -1 -1 -1 -1 -1 -1 -1 -1 -1 -1 -1 -1
$$ -1 -1 -1 -1 -1 -1 -1 -1 -1 -1 -1 -1 -1 -1 -1 -1 -1 -1 -1 -1 -1 -1 -1 -1
$$ -1 -1 -1 -1 -1 -1 -1 -1 -1 -1 -1 -1 -1 -1 -1 -1 -1 -1 -1 -1 -1 -1 -1 -1
$$ -1 -1 -1 -1 -1 -1 -1 -1 -1 -1 -1 -1 -1 -1 -1 -1 -1 -1 -1 -1 -1 -1 -1 -1
$$ -1 -1 -1 -1 -1 -1 -1 -1 -1 -1 -1 -1 -1 -1 -1 -1 -1 -1 -1 -1 -1 -1 -1 -1
$$ -1 -1 -1 -1 -1 -1 -1 -1 -1 -1 -1 -1 -1 -1 -1 -1 -1 -1 -1 -1 -1 -1 -1 -1
$$ -1 -1 -1 -1 -1 -1 -1 -1 -1 -1 -1 -1 -1 -1 -1 -1 -1 -1 -1 -1 -1 -1 -1 -1
$$ -1 -1 -1 -1 -1 -1 -1 -1 -1 -1 -1 -1 -1 -1 -1 -1 -1 -1 -1 -1 -1 -1 -1 -1
$$ -1 -1 -1 -1 -1 -1 -1 -1 -1 -1 -1 -1 -1 -1 -1 -1
$$ ##$RG_tab6= (0..255)
$$ -1 -1 -1 -1 -1 -1 -1 -1 -1 -1 -1 -1 -1 -1 -1 -1 -1 -1 -1 -1 -1 -1 -1 -1
$$ -1 -1 -1 -1 -1 -1 -1 -1 -1 -1 -1 -1 -1 -1 -1 -1 -1 -1 -1 -1 -1 -1 -1 -1
$$ -1 -1 -1 -1 -1 -1 -1 -1 -1 -1 -1 -1 -1 -1 -1 -1 -1 -1 -1 -1 -1 -1 -1 -1
$$ -1 -1 -1 -1 -1 -1 -1 -1 -1 -1 -1 -1 -1 -1 -1 -1 -1 -1 -1 -1 -1 -1 -1 -1
$$ -1 -1 -1 -1 -1 -1 -1 -1 -1 -1 -1 -1 -1 -1 -1 -1 -1 -1 -1 -1 -1 -1 -1 -1
$$ -1 -1 -1 -1 -1 -1 -1 -1 -1 -1 -1 -1 -1 -1 -1 -1 -1 -1 -1 -1 -1 -1 -1 -1
$$ -1 -1 -1 -1 -1 -1 -1 -1 -1 -1 -1 -1 -1 -1 -1 -1 -1 -1 -1 -1 -1 -1 -1 -1
$$ -1 -1 -1 -1 -1 -1 -1 -1 -1 -1 -1 -1 -1 -1 -1 -1 -1 -1 -1 -1 -1 -1 -1 -1
$$ -1 -1 -1 -1 -1 -1 -1 -1 -1 -1 -1 -1 -1 -1 -1 -1 -1 -1 -1 -1 -1 -1 -1 -1
$$ -1 -1 -1 -1 -1 -1 -1 -1 -1 -1 -1 -1 -1 -1 -1 -1 -1 -1 -1 -1 -1 -1 -1 -1
$$ -1 -1 -1 -1 -1 -1 -1 -1 -1 -1 -1 -1 -1 -1 -1 -1
$$ ##$RG_tab7= (0..255)
$$ -1 -1 -1 -1 -1 -1 -1 -1 -1 -1 -1 -1 -1 -1 -1 -1 -1 -1 -1 -1 -1 -1 -1 -1
$$ -1 -1 -1 -1 -1 -1 -1 -1 -1 -1 -1 -1 -1 -1 -1 -1 -1 -1 -1 -1 -1 -1 -1 -1
$$ -1 -1 -1 -1 -1 -1 -1 -1 -1 -1 -1 -1 -1 -1 -1 -1 -1 -1 -1 -1 -1 -1 -1 -1
$$ -1 -1 -1 -1 -1 -1 -1 -1 -1 -1 -1 -1 -1 -1 -1 -1 -1 -1 -1 -1 -1 -1 -1 -1
$$ -1 -1 -1 -1 -1 -1 -1 -1 -1 -1 -1 -1 -1 -1 -1 -1 -1 -1 -1 -1 -1 -1 -1 -1
$$ -1 -1 -1 -1 -1 -1 -1 -1 -1 -1 -1 -1 -1 -1 -1 -1 -1 -1 -1 -1 -1 -1 -1 -1
$$ -1 -1 -1 -1 -1 -1 -1 -1 -1 -1 -1 -1 -1 -1 -1 -1 -1 -1 -1 -1 -1 -1 -1 -1
$$ -1 -1 -1 -1 -1 -1 -1 -1 -1 -1 -1 -1 -1 -1 -1 -1 -1 -1 -1 -1 -1 -1 -1 -1
$$ -1 -1 -1 -1 -1 -1 -1 -1 -1 -1 -1 -1 -1 -1 -1 -1 -1 -1 -1 -1 -1 -1 -1 -1
$$ -1 -1 -1 -1 -1 -1 -1 -1 -1 -1 -1 -1 -1 -1 -1 -1 -1 -1 -1 -1 -1 -1 -1 -1
$$ -1 -1 -1 -1 -1 -1 -1 -1 -1 -1 -1 -1 -1 -1 -1 -1
$$ ##$RG_tab8= (0..255)
$$ -1 -1 -1 -1 -1 -1 -1 -1 -1 -1 -1 -1 -1 -1 -1 -1 -1 -1 -1 -1 -1 -1 -1 -1
$$ -1 -1 -1 -1 -1 -1 -1 -1 -1 -1 -1 -1 -1 -1 -1 -1 -1 -1 -1 -1 -1 -1 -1 -1
$$ -1 -1 -1 -1 -1 -1 -1 -1 -1 -1 -1 -1 -1 -1 -1 -1 -1 -1 -1 -1 -1 -1 -1 -1
$$ -1 -1 -1 -1 -1 -1 -1 -1 -1 -1 -1 -1 -1 -1 -1 -1 -1 -1 -1 -1 -1 -1 -1 -1
$$ -1 -1 -1 -1 -1 -1 -1 -1 -1 -1 -1 -1 -1 -1 -1 -1 -1 -1 -1 -1 -1 -1 -1 -1
$$ -1 -1 -1 -1 -1 -1 -1 -1 -1 -1 -1 -1 -1 -1 -1 -1 -1 -1 -1 -1 -1 -1 -1 -1
$$ -1 -1 -1 -1 -1 -1 -1 -1 -1 -1 -1 -1 -1 -1 -1 -1 -1 -1 -1 -1 -1 -1 -1 -1
$$ -1 -1 -1 -1 -1 -1 -1 -1 -1 -1 -1 -1 -1 -1 -1 -1 -1 -1 -1 -1 -1 -1 -1 -1
$$ -1 -1 -1 -1 -1 -1 -1 -1 -1 -1 -1 -1 -1 -1 -1 -1 -1 -1 -1 -1 -1 -1 -1 -1
$$ -1 -1 -1 -1 -1 -1 -1 -1 -1 -1 -1 -1 -1 -1 -1 -1 -1 -1 -1 -1 -1 -1 -1 -1
$$ -1 -1 -1 -1 -1 -1 -1 -1 -1 -1 -1 -1 -1 -1 -1 -1
$$ ##$RG_tabA= (0..255)
$$ 0.25 0.28 0.32 0.35 0.4 0.44 0.5 0.56 0.64 0.7 0.8 0.89 1 1.12 1.28 1.4
$$ 1.6 1.78 2 2.25 2.56 2.8 3.2 3.56 4 4.5 5 5.6 6.35 7.12 8 9 10 11.3 12.7
$$ 14.2 16 18 20.2 22.6 25.4 28.5 32 36 40.3 45.2 50.8 57 64 71.8 80.6 90.5
$$ 101 114 128 144 161 181 203 228 256 287 322 362 406 456 512 575 645 724
$$ 812 912 1030 1150 1290 1440 1620 1820 2050 -1 -1 -1 -1 -1 -1 -1 -1 -1 -1
$$ -1 -1 -1 -1 -1 -1 -1 -1 -1 -1 -1 -1 -1 -1 -1 -1 -1 -1 -1 -1 -1 -1 -1 -1
$$ -1 -1 -1 -1 -1 -1 -1 -1 -1 -1 -1 -1 -1 -1 -1 -1 -1 -1 -1 -1 -1 -1 -1 -1
$$ -1 -1 -1 -1 -1 -1 -1 -1 -1 -1 -1 -1 -1 -1 -1 -1 -1 -1 -1 -1 -1 -1 -1 -1
$$ -1 -1 -1 -1 -1 -1 -1 -1 -1 -1 -1 -1 -1 -1 -1 -1 -1 -1 -1 -1 -1 -1 -1 -1
$$ -1 -1 -1 -1 -1 -1 -1 -1 -1 -1 -1 -1 -1 -1 -1 -1 -1 -1 -1 -1 -1 -1 -1 -1
$$ -1 -1 -1 -1 -1 -1 -1 -1 -1 -1 -1 -1 -1 -1 -1 -1 -1 -1 -1 -1 -1 -1 -1 -1
$$ -1 -1 -1 -1 -1 -1 -1 -1 -1 -1 -1 -1 -1 -1 -1 -1 -1 -1 -1 -1 -1 -1 -1
$$ ##$ROBOTTY= <no>
$$ ##$ROUT14= (0..7)
$$ 0 0 0 0 0 0 0 0
$$ ##$ROUTER= 3
$$ ##$RX22TY= <no>
$$ ##$RXFMAX= (0..7)
$$ 432.5 -1 -1 -1 -1 -1 -1 -1
$$ ##$RXFMIN= (0..7)
$$ 5 -1 -1 -1 -1 -1 -1 -1
$$ ##$RXINTLV= (0..7)
$$ 1 0 0 0 0 0 0 0
$$ ##$RXMSTY= <no>
$$ ##$RockSwitchEth= <no>
$$ ##$SCMTY= <no>
$$ ##$SGUC1= (0..15)
$$ 18 19 0 0 0 0 0 0 0 0 0 0 0 0 0 0
$$ ##$SGUC2= (0..15)
$$ 33 256 0 0 0 0 0 0 0 0 0 0 0 0 0 0
$$ ##$SLCBCONF= <SH>
$$ ##$SPECTR= 10
$$ ##$SY2FLAG= 0
$$ ##$SYNCTRIG= 11
$$ ##$SamChgEth= (0..3)
$$ <149.236.99.116> <no> <no> <no>
$$ ##$SamChgProtocol= (0..3)
$$ <SOAP> <> <> <>
$$ ##$ServiceNo= <>
$$ ##$Sgu1PowerLevels= (0..7)
$$ 0 0 0 0 0 0 0 0
$$ ##$Sgu2PowerLevels= (0..7)
$$ 0 0 0 0 0 0 0 0
$$ ##$Sgu3PowerLevels= (0..7)
$$ 0 0 0 0 0 0 0 0
$$ ##$Sgu4PowerLevels= (0..7)
$$ 0 0 0 0 0 0 0 0
$$ ##$Sgu5PowerLevels= (0..7)
$$ 0 0 0 0 0 0 0 0
$$ ##$Sgu6PowerLevels= (0..7)
$$ 0 0 0 0 0 0 0 0
$$ ##$Sgu7PowerLevels= (0..7)
$$ 0 0 0 0 0 0 0 0
$$ ##$Sgu8PowerLevels= (0..7)
$$ 0 0 0 0 0 0 0 0
$$ ##$SguType= 2
$$ ##$ShimMaxVal= 32760
$$ ##$ShimPow1Ch2Sh= (0..38)
$$ 0 0 0 0 0 0 0 0 0 0 0 0 0 0 0 0 0 0 0 0 0 0 0 0 0 0 0 0 0 0 0 0 0 0 0 0
$$ 0 0 0
$$ ##$ShimPow1Imax= (0..38)
$$ 0 0 0 0 0 0 0 0 0 0 0 0 0 0 0 0 0 0 0 0 0 0 0 0 0 0 0 0 0 0 0 0 0 0 0 0
$$ 0 0 0
$$ ##$ShimPow1NChan= 0
$$ ##$ShimPow1TotIMax= 0
$$ ##$ShimPow1Vmax= (0..38)
$$ 0 0 0 0 0 0 0 0 0 0 0 0 0 0 0 0 0 0 0 0 0 0 0 0 0 0 0 0 0 0 0 0 0 0 0 0
$$ 0 0 0
$$ ##$ShimPow2Ch2Sh= (0..38)
$$ 0 0 0 0 0 0 0 0 0 0 0 0 0 0 0 0 0 0 0 0 0 0 0 0 0 0 0 0 0 0 0 0 0 0 0 0
$$ 0 0 0
$$ ##$ShimPow2Imax= (0..38)
$$ 0 0 0 0 0 0 0 0 0 0 0 0 0 0 0 0 0 0 0 0 0 0 0 0 0 0 0 0 0 0 0 0 0 0 0 0
$$ 0 0 0
$$ ##$ShimPow2NChan= 0
$$ ##$ShimPow2TotIMax= 0
$$ ##$ShimPow2Vmax= (0..38)
$$ 0 0 0 0 0 0 0 0 0 0 0 0 0 0 0 0 0 0 0 0 0 0 0 0 0 0 0 0 0 0 0 0 0 0 0 0
$$ 0 0 0
$$ ##$ShimPow3Ch2Sh= (0..38)
$$ 0 0 0 0 0 0 0 0 0 0 0 0 0 0 0 0 0 0 0 0 0 0 0 0 0 0 0 0 0 0 0 0 0 0 0 0
$$ 0 0 0
$$ ##$ShimPow3Imax= (0..38)
$$ 0 0 0 0 0 0 0 0 0 0 0 0 0 0 0 0 0 0 0 0 0 0 0 0 0 0 0 0 0 0 0 0 0 0 0 0
$$ 0 0 0
$$ ##$ShimPow3NChan= 0
$$ ##$ShimPow3TotIMax= 0
$$ ##$ShimPow3Vmax= (0..38)
$$ 0 0 0 0 0 0 0 0 0 0 0 0 0 0 0 0 0 0 0 0 0 0 0 0 0 0 0 0 0 0 0 0 0 0 0 0
$$ 0 0 0
$$ ##$ShimPow4Ch2Sh= (0..38)
$$ 0 0 0 0 0 0 0 0 0 0 0 0 0 0 0 0 0 0 0 0 0 0 0 0 0 0 0 0 0 0 0 0 0 0 0 0
$$ 0 0 0
$$ ##$ShimPow4Imax= (0..38)
$$ 0 0 0 0 0 0 0 0 0 0 0 0 0 0 0 0 0 0 0 0 0 0 0 0 0 0 0 0 0 0 0 0 0 0 0 0
$$ 0 0 0
$$ ##$ShimPow4NChan= 0
$$ ##$ShimPow4TotIMax= 0
$$ ##$ShimPow4Vmax= (0..38)
$$ 0 0 0 0 0 0 0 0 0 0 0 0 0 0 0 0 0 0 0 0 0 0 0 0 0 0 0 0 0 0 0 0 0 0 0 0
$$ 0 0 0
$$ ##$ShimPowMaxUA= (0..63)
$$ 130000 130000 130000 130000 130000 130000 130000 130000 130000 130000 130000
$$ 130000 130000 130000 130000 130000 130000 130000 130000 130000 0 0 0 0
$$ 0 0 0 0 0 0 0 0 0 0 0 0 0 0 0 0 0 0 0 0 0 0 0 0 0 0 0 0 0 0 0 0 0 0 0 0
$$ 0 0 0 0
$$ ##$ShimPowMaxUC= (0..63)
$$ 130000 130000 130000 130000 130000 130000 130000 130000 130000 130000 130000
$$ 130000 130000 130000 130000 130000 130000 130000 130000 130000 0 0 0 0
$$ 0 0 0 0 0 0 0 0 0 0 0 0 0 0 0 0 0 0 0 0 0 0 0 0 0 0 0 0 0 0 0 0 0 0 0 0
$$ 0 0 0 0
$$ ##$ShimPowMaxUG= (0..63)
$$ 524287 524287 524287 524287 524287 524287 524287 524287 524287 524287 524287
$$ 524287 524287 524287 524287 524287 524287 524287 524287 524287 0 0 0 0
$$ 0 0 0 0 0 0 0 0 0 0 0 0 0 0 0 0 0 0 0 0 0 0 0 0 0 0 0 0 0 0 0 0 0 0 0 0
$$ 0 0 0 0
$$ ##$ShimPowNum= 0
$$ ##$ShimPowRcbType= 3
$$ ##$ShimPowRes= (0..63)
$$ 1e-20 1e-20 1e-20 1e-20 1e-20 1e-20 1e-20 1e-20 1e-20 1e-20 1e-20 1e-20
$$ 1e-20 1e-20 1e-20 1e-20 1e-20 1e-20 1e-20 1e-20 0 0 0 0 0 0 0 0 0 0 0 0
$$ 0 0 0 0 0 0 0 0 0 0 0 0 0 0 0 0 0 0 0 0 0 0 0 0 0 0 0 0 0 0 0 0
$$ ##$ShimPowRng0= (0..63)
$$ 1 1 1 1 1 1 1 1 1 1 1 1 1 1 1 1 1 1 1 1 0 0 0 0 0 0 0 0 0 0 0 0 0 0 0 0
$$ 0 0 0 0 0 0 0 0 0 0 0 0 0 0 0 0 0 0 0 0 0 0 0 0 0 0 0 0
$$ ##$ShimPowRng1= (0..63)
$$ 1 1 1 1 1 1 1 1 1 1 1 1 1 1 1 1 1 1 1 1 0 0 0 0 0 0 0 0 0 0 0 0 0 0 0 0
$$ 0 0 0 0 0 0 0 0 0 0 0 0 0 0 0 0 0 0 0 0 0 0 0 0 0 0 0 0
$$ ##$ShimPowRng2= (0..63)
$$ 1 1 1 1 1 1 1 1 1 1 1 1 1 1 1 1 1 1 1 1 0 0 0 0 0 0 0 0 0 0 0 0 0 0 0 0
$$ 0 0 0 0 0 0 0 0 0 0 0 0 0 0 0 0 0 0 0 0 0 0 0 0 0 0 0 0
$$ ##$ShimPowRng3= (0..63)
$$ 1 1 1 1 1 1 1 1 1 1 1 1 1 1 1 1 1 1 1 1 0 0 0 0 0 0 0 0 0 0 0 0 0 0 0 0
$$ 0 0 0 0 0 0 0 0 0 0 0 0 0 0 0 0 0 0 0 0 0 0 0 0 0 0 0 0
$$ ##$ShimPowType1= 0
$$ ##$ShimPowType2= 0
$$ ##$ShimPowType3= 0
$$ ##$ShimPowType4= 0
$$ ##$ShimSysAngle= <>
$$ ##$ShimSysFunc= (0..63)
$$ 1 2 3 4 5 7 9 11 15 16 8 10 12 14 6 17 13 18 19 20 0 0 0 0 0 0 0 0 0 0
$$ 0 0 0 0 0 0 0 0 0 0 0 0 0 0 0 0 0 0 0 0 0 0 0 0 0 0 0 0 0 0 0 0 0 0
$$ ##$ShimSysMatId= <no>
$$ ##$ShimSysMatrix= 1
$$ ##$ShimSysOffset= <0>
$$ ##$ShimSysType= 1
$$ ##$ShimUnit= 0
$$ ##$TFXNUM= 0
$$ ##$TOSITY= <no>
$$ ##$TRIPLO2= 0
$$ ##$VTU= 1
$$ ##$VTUETH= <no>
$$ ##$VTUTY= <tty05>
$$ ##$WBREFAM= (0..15)
$$ 312.9 96.3 100 100 100 100 100 100 100 100 100 100 100 100 100 100
$$ ##$WBREFLM= (0..15)
$$ 0 0 0 0 0 0 0 0 0 0 0 0 0 0 0 0
$$ ##$WBREFPH= (0..15)
$$ 77.85 -68.67 0 0 0 0 0 0 0 0 0 0 0 0 0 0
$$ ##$WBSGU= (0..15)
$$ 0 0 0 0 0 0 0 0 0 0 0 0 0 0 0 0
$$ ##$XFAC= 2
$$ ##END=
##$RELAX= 
##$BRUKER FILE PROC=clevels
$$ ##TITLE= Parameter file, TopSpin 4.4.0
$$ ##JCAMPDX= 5.0
$$ ##DATATYPE= Parameter Values
$$ ##NPOINTS= 9	$$ modification sequence number
$$ ##ORIGIN= Bruker BioSpin GmbH
$$ ##OWNER= nmrsu
$$ $$ 2024-11-28 17:07:42.150 +0000  DS\mbdssra2@E-10ACC31777JT
$$ $$ D:/Dropbox (The University of Manchester)/Winter chemicals/data/renamed/Molecule 24/12/pdata/1/clevels
$$ $$ process D:\Bruker\TopSpin4.4.0\prog\mod\dataserver.exe
$$ ##$LEVELS= (0..255)
$$ 215160 258192 309830.4 371796.5 446155.8 535386.9 642464.3 770957.2 925148.6
$$ 1110178.3 1332214 1598656.8 1918388.2 2302065.8 2762479 3314974.8 3977969.7
$$ 4773563.7 5728276.4 6873931.7 0 0 0 0 0 0 0 0 0 0 0 0 0 0 0 0 0 0 0 0 0
$$ 0 0 0 0 0 0 0 0 0 0 0 0 0 0 0 0 0 0 0 0 0 0 0 0 0 0 0 0 0 0 0 0 0 0 0 0
$$ 0 0 0 0 0 0 0 0 0 0 0 0 0 0 0 0 0 0 0 0 0 0 0 0 0 0 0 0 0 0 0 0 0 0 0 0
$$ 0 0 0 0 0 0 0 0 0 0 0 0 0 0 0 0 0 0 0 0 0 0 0 0 0 0 0 0 0 0 0 0 0 0 0 0
$$ 0 0 0 0 0 0 0 0 0 0 0 0 0 0 0 0 0 0 0 0 0 0 0 0 0 0 0 0 0 0 0 0 0 0 0 0
$$ 0 0 0 0 0 0 0 0 0 0 0 0 0 0 0 0 0 0 0 0 0 0 0 0 0 0 0 0 0 0 0 0 0 0 0 0
$$ 0 0 0 0 0 0 0 0 0 0 0 0 0 0 0 0 0 0 0 0 0 0 0 0 0 0 0 0 0 0 0 0 0 0 0
$$ ##$LEVSIGN= 1
$$ ##$MAXLEV= 20
$$ ##$METHOD= 0
$$ ##$NEGBASE= -215160
$$ ##$NEGINCR= 1.2
$$ ##$POSBASE= 215160
$$ ##$POSINCR= 1.2
$$ ##END=
##$RELAX= 
##$BRUKER FILE PROC=parm.txt
$$ 
$$ Current Data Parameters
$$ NAME     20241126-1044-B400_B.14-7              
$$ EXPNO                12              
$$ PROCNO                1              
$$ 
$$ F2 - Acquisition Parameters
$$ Date_          20241126              
$$ Time              20.38 h            
$$ INSTRUM           spect              
$$ PROBHD   Z108618_1109 (              
$$ PULPROG        cosygpqf              
$$ TD                 4096              
$$ SOLVENT           CDCl3              
$$ NS                    4              
$$ DS                    4              
$$ SWH            4795.396 Hz           
$$ FIDRES         2.341502 Hz           
$$ AQ            0.4270763 sec          
$$ RG                 1820              
$$ DW              104.267 usec         
$$ DE                 6.50 usec         
$$ TE                294.6 K            
$$ D0           0.00000300 sec          
$$ D1           2.00000000 sec          
$$ D13          0.00000400 sec          
$$ D16          0.00020000 sec          
$$ IN0          0.00020860 sec          
$$ SPARSELI              0              
$$ TDav                  1              
$$ SFO1        400.1722009 MHz          
$$ NUC1                 1H              
$$ P0                14.00 usec         
$$ P1                14.00 usec         
$$ PLW1        14.58500004 W            
$$ GPNAM[1]       SINE.100              
$$ GPZ1              65.00 %            
$$ P16             1000.00 usec         
$$ 
$$ F1 - Acquisition parameters
$$ TD                  128              
$$ SFO1           400.1722 MHz          
$$ FIDRES        74.904121 Hz           
$$ SW               11.980 ppm          
$$ FnMODE               QF              
$$ 
$$ F2 - Processing parameters
$$ SI                  512              
$$ SF          400.1700000 MHz          
$$ WDW               QSINE              
$$ SSB                   0              
$$ LB                    0 Hz           
$$ GB                    0              
$$ PC                 1.40              
$$ 
$$ F1 - Processing parameters
$$ SI                  512              
$$ MC2                  QF              
$$ SF          400.1700000 MHz          
$$ WDW               QSINE              
$$ SSB                   0              
$$ LB                    0 Hz           
$$ GB                    0              
##$RELAX= 
$$ Bruker specific parameters
$$ --------------------------
##$DATPATH= <D:/Dropbox (The University of Manchester)/Winter chemicals/data/renamed>
##$EXPNO= 12
##$NAME= <Molecule 24>
##$PROCNO= 1
##$ACQT0= 1000000
##$AMP= (0..31)
100 100 100 100 100 100 100 100 100 100 100 100 100 100 100 100 100 100
100 100 100 100 100 100 100 100 100 100 100 100 100 100
##$AMPCOIL= (0..32)
-1 0 0 0 0 0 0 0 0 0 0 0 0 0 0 0 0 0 0 0 0 0 0 0 0 0 0 0 0 0 0 0 0
##$AQSEQ= 0
##$AQ_mod= 3
##$AUNM= <au_zg>
##$AUTOPOS= <7 >
##$BF1= 400.17
##$BF2= 400.17
##$BF3= 400.17
##$BF4= 400.17
##$BF5= 400.17
##$BF6= 400.17
##$BF7= 400.17
##$BF8= 400.17
##$BWFAC= (0..63)
0 0 0 0 0 0 0 0 0 0 0 0 0 0 0 0 0 0 0 0 0 0 0 0 0 0 0 0 0 0 0 0 0 0 0 0
0 0 0 0 0 0 0 0 0 0 0 0 0 0 0 0 0 0 0 0 0 0 0 0 0 0 0 0
##$BYTORDA= 0
##$CHANFCU= (0..24)
0 0 0 0 0 0 0 0 0 0 0 0 0 0 0 0 0 0 0 0 0 0 0 0 0
##$CHANREC= (0..24)
0 0 0 0 0 0 0 0 0 0 0 0 0 0 0 0 0 0 0 0 0 0 0 0 0
##$CHEMSTR= <none>
##$CNST= (0..63)
1 1 145 1 1 1 1 1 1 1 1 1 1 1 1 1 1 1 1 1 1 1 1 1 1 1 1 1 1 1 1 1 1 1 1
1 1 1 1 1 1 1 1 1 1 1 1 1 1 1 1 1 1 1 1 1 1 1 1 1 1 1 1 1
##$CPDPRG= (0..8)
<> <> <> <> <mlev> <mlev> <mlev> <mlev> <mlev>
##$D= (0..63)
3e-06 2 0 0 0 0 0 0 0 0.06 0 0.03 2e-05 4e-06 0 0 0.0002 0 0 0 0 0 0 0
0 0 0 0 0 0 0 0 0 0 0 0 0 0 0 0 0 0 0 0 0 0 0 0 0 0 0 0 0 0 0 0 0 0 0 0
0 0 0 0
##$DATE= 1732653488
##$DATE_START= 0
##$DE= 6.5
##$DECBNUC= <off>
##$DECIM= 4170.66666666667
##$DECNUC= <off>
##$DECSTAT= 4
##$DIGMOD= 1
##$DIGTYP= 12
##$DR= 23
##$DS= 4
##$DSPFIRM= 0
##$DSPFVS= 20
##$DTYPA= 0
##$EXP= <H1_COSY_HiRes_Night>
##$ExpStatus= 0
##$FCUCHAN= (0..9)
0 2 0 0 0 0 0 0 0 0
##$FILCOR= 0
##$FL1= 90
##$FL2= 90
##$FL3= 90
##$FL4= 90
##$FN_INDIRECT= (0..7)
0 1 0 0 0 0 0 0
##$FOV= 20
##$FQ1LIST= <freqlist>
##$FQ2LIST= <freqlist>
##$FQ3LIST= <freqlist>
##$FQ4LIST= <freqlist>
##$FQ5LIST= <freqlist>
##$FQ6LIST= <freqlist>
##$FQ7LIST= <freqlist>
##$FQ8LIST= <freqlist>
##$FS= (0..7)
83 83 83 83 83 83 83 83
##$FTLPGN= 0
##$FW= 4032000
##$FnILOOP= 0
##$FnMODE= 0
##$FnTYPE= 2
##$GPNAM= (0..31)
<SINE.100> <SINE.100> <SINE.100> <SINE.100> <SINE.100> <SINE.100> <SINE.100>
<SINE.100> <SINE.100> <SINE.100> <SINE.100> <SINE.100> <SINE.100> <SINE.100>
<SINE.100> <SINE.100> <SINE.100> <SINE.100> <SINE.100> <SINE.100> <SINE.100>
<SINE.100> <SINE.100> <SINE.100> <SINE.100> <SINE.100> <SINE.100> <SINE.100>
<SINE.100> <SINE.100> <SINE.100> <SINE.100>
##$GPX= (0..31)
0 0 0 0 0 0 0 0 0 0 0 0 0 0 0 0 0 0 0 0 0 0 0 0 0 0 0 0 0 0 0 0
##$GPY= (0..31)
0 0 0 0 0 0 0 0 0 0 0 0 0 0 0 0 0 0 0 0 0 0 0 0 0 0 0 0 0 0 0 0
##$GPZ= (0..31)
0 65 20 0 0 0 0 0 0 0 0 0 0 0 0 0 0 0 0 0 0 0 0 0 0 0 0 0 0 0 0 0
##$GRPDLY= 67.9881591796875
##$GrpdlyHandling= 0
##$HDDUTY= 20
##$HDRATE= 20
##$HGAIN= (0..3)
0 0 0 0
##$HOLDER= 7
##$HPMOD= (0..32)
0 0 0 0 0 0 0 0 0 0 0 0 0 0 0 0 0 0 0 0 0 0 0 0 0 0 0 0 0 0 0 0 0
##$IN= (0..63)
0.0002086 0 0 0 0 0 0 0 0 0 0 0 0 0 0 0 0 0 0 0 0 0 0 0 0 0 0 0 0 0 0 0
0.001 0.001 0.001 0.001 0.001 0.001 0.001 0.001 0.001 0.001 0.001 0.001
0.001 0.001 0.001 0.001 0.001 0.001 0.001 0.001 0.001 0.001 0.001 0.001
0.001 0.001 0.001 0.001 0.001 0.001 0.001 0.001
##$INF= (0..7)
0 208.6 0 0 0 0 0 0
##$INP= (0..63)
0 0 0 0 0 0 0 0 0 0 0 0 0 0 0 0 0 0 0 0 0 0 0 0 0 0 0 0 0 0 0 0 0 0 0 0
0 0 0 0 0 0 0 0 0 0 0 0 0 0 0 0 0 0 0 0 0 0 0 0 0 0 0 0
##$INSTRUM= <spect>
##$INTEGFAC= (0..63)
0 0 0 0 0 0 0 0 0 0 0 0 0 0 0 0 0 0 0 0 0 0 0 0 0 0 0 0 0 0 0 0 0 0 0 0
0 0 0 0 0 0 0 0 0 0 0 0 0 0 0 0 0 0 0 0 0 0 0 0 0 0 0 0
##$L= (0..31)
4 28 1 1 1 28 1 1 1 1 1 1 1 1 1 1 1 1 1 1 1 1 1 1 1 1 1 1 1 1 1 1
##$LFILTER= 100
##$LGAIN= -12
##$LINPSTP= 0
##$LOCKED= yes
##$LOCKFLD= -578
##$LOCKGN= 116.751518249512
##$LOCKPOW= -30
##$LOCKPPM= 7.23999977111816
##$LOCNUC= <2H>
##$LOCPHAS= 137.1427
##$LOCSHFT= yes
##$LOCSW= 0
##$LTIME= 0.400000005960464
##$MASR= 4200
##$MULEXPNO= (0..15)
0 0 0 0 0 0 0 0 0 0 0 0 0 0 0 0
##$NBL= 1
##$NC= -7
##$NLOGCH= 1
##$NOVFLW= 0
##$NS= 4
##$NUC1= <1H>
##$NUC2= <off>
##$NUC3= <off>
##$NUC4= <off>
##$NUC5= <off>
##$NUC6= <off>
##$NUC7= <off>
##$NUC8= <off>
##$NUCLEUS= <off>
##$NUSLIST= <automatic>
##$NusAMOUNT= 25
##$NusFPNZ= no
##$NusJSP= 0
##$NusSEED= 54321
##$NusSPTYPE= 0
##$NusT2= 1
##$NusTD= 0
##$O1= 2200.935
##$O2= 2200.935
##$O3= 2200.935
##$O4= 2200.935
##$O5= 2200.935
##$O6= 2200.935
##$O7= 2200.935
##$O8= 2200.935
##$OVERFLW= 0
##$P= (0..63)
14 14 28 0 0 19.8 30 60 20000 0 0 80000 80000 1000 0 300000 1000 2500 100000
600 2500 0 0 0 0 270 100000 14 1000 1000 0 0 20000 0 0 0 0 0 0 0 2000 0
0 0 300 0 80000 46600 10000 0 80000 0 0 0 0 0 0 0 0 0 0 0 0 0
##$PACOIL= (0..32)
2 3 1 0 0 0 0 0 0 0 0 0 0 0 0 0 0 0 0 0 0 0 0 0 0 0 0 0 0 0 0 0 0
##$PAPS= 2
##$PARMODE= 1
##$PCPD= (0..9)
100 90 100 100 100 100 100 100 100 100
##$PEXSEL= (0..9)
1 1 1 1 1 1 1 1 1 1
##$PHCOR= (0..31)
0 0 0 0 0 0 0 0 0 0 0 0 0 0 0 0 0 0 0 0 0 0 0 0 0 0 0 0 0 0 0 0
##$PHLIST= <>
##$PH_ref= 0
##$PL= (0..63)
120 -0.3 120 120 120 120 120 120 120 53.68 9.24 21.64 120 120 120 120 120
120 -0.3 15.26 120 120 120 120 120 120 120 21.64 120 120 120 120 120 120
120 120 120 120 120 120 120 120 120 120 120 120 120 120 120 120 120 120
120 120 120 120 120 120 120 120 120 120 120 120
##$PLSTEP= 0.1
##$PLSTRT= -6
##$PLW= (0..63)
0 14.585 0 0 0 0 0 0 0 0.00011435 3.1764 0.16916 0 0 0 0 0 0 14.585 0.35293
0 0 0 0 0 0 0 0.15686 0 3.1764 0 0 4.574e-06 0 0 0 0 0 0 0 0 0 0 0 0 0
0 0 0 0 0 0 0 0 0 0 0 0 0 0 0 0 0 0
##$PLWMAX= (0..7)
29.5 0 0 0 0 0 0 0
##$PQPHASE= 0
##$PQSCALE= 0
##$PR= 1
##$PRECHAN= (0..32)
-1 2 0 1 -1 -1 -1 -1 -1 -1 -1 -1 -1 -1 -1 -1 -1 -1 -1 -1 -1 -1 -1 -1 -1
-1 -1 -1 -1 -1 -1 -1 -1
##$PROBHD= <Z108618_1109 (PA BBO 400S1 BBF-H-D-05 Z)>
##$PROBINPUTS= (0..15)
<19F-109Ag> <1H> <2H> <> <> <> <> <> <> <> <> <> <> <> <> <>
##$PULPROG= <cosygpqf>
##$PW= 0
##$PYNM= <acqu.py>
##$ProjAngle= 0
##$QNP= 1
##$RECCHAN= (0..9)
0 2 0 0 0 0 0 0 0 0
##$RECPH= 0
##$RECPRE= (0..24)
-1 0 -1 -1 -1 -1 -1 -1 -1 -1 -1 -1 -1 -1 -1 -1 -1 -1 -1 -1 -1 -1 -1 -1
-1
##$RECPRFX= (0..32)
1 0 0 0 0 0 0 0 0 0 0 0 0 0 0 0 -1 -1 -1 -1 -1 -1 -1 -1 -1 -1 -1 -1 -1
-1 -1 -1 -1
##$RG= 1820
##$RO= 0
##$RSEL= (0..24)
0 0 2 0 0 0 0 0 0 0 0 0 0 0 0 0 0 0 0 0 0 0 0 0 0
##$SAMPLEID= <>
##$SFO1= 400.172200935
##$SFO2= 400.172200935
##$SFO3= 400.172200935
##$SFO4= 400.172200935
##$SFO5= 400.172200935
##$SFO6= 400.172200935
##$SFO7= 400.172200935
##$SFO8= 400.172200935
##$SOLVENT= <CDCl3>
##$SOLVOLD= <off>
##$SP= (0..63)
1 60.51 64.03 0 0 0 59.7 0 0 0 0 36.68 0 0 120 0 150 150 120 61.99 60.08
63.39 56.07 150 150 150 150 150 150 120 150 120 120 120 120 120 120 120
120 120 120 120 120 120 120 120 120 120 120 120 120 120 120 120 120 120
120 120 120 120 120 120 120 120
##$SPECTR= 0
##$SPINCNT= 0
##$SPNAM= (0..63)
<gauss> <Gaus1_270.1000> <Gaus1_180r.1000> <> <gauss> <Sinc1.1000> <Squa100.1000>
<> <Squa100.1000> <gauss> <Sinc1.1000> <Sinc1.1000> <gauss> <gauss> <>
<> <gauss> <gauss> <> <Sinc1.1000> <Sinc1.1000> <Sinc1.1000> <Sinc1.1000>
<gauss> <gauss> <gauss> <gauss> <gauss> <gauss> <Crp60,20,20.10> <Bip720,50,20.1>
<> <> <> <Rsnob.1000> <Gaus1_180r.1000> <Gaus1_180r.1000> <> <> <> <Gaus1_180r.1000>
<Squa100.1000> <> <> <> <> <> <> <> <> <> <> <> <> <> <> <> <> <> <> <>
<> <> <>
##$SPOAL= (0..63)
0.5 1 0.5 0.5 0.5 0.5 0.5 0.5 0.5 0.5 0.5 0.5 0.5 0.5 0.5 0.5 0.5 0.5 0.5
1 1 1 1 0.5 0.5 0.5 0.5 0.5 0.5 0.5 0.5 0.5 0.5 0.5 0.5 0.5 0.5 0.5 0.5
0.5 0.5 0.5 0.5 0.5 0.5 0.5 0.5 0.5 0.5 0.5 0.5 0.5 0.5 0.5 0.5 0.5 0.5
0.5 0.5 0.5 0.5 0.5 0.5 0.5
##$SPOFFS= (0..63)
0 0 0 0 0 0 0 0 0 0 0 0 0 0 0 0 0 0 0 0 0 0 0 0 0 0 0 0 0 0 0 0 0 0 0 0
0 0 0 0 0 0 0 0 0 0 0 0 0 0 0 0 0 0 0 0 0 0 0 0 0 0 0 0
##$SPPEX= (0..63)
0 0 0 0 0 0 0 0 0 0 0 0 0 0 0 0 0 0 0 0 0 0 0 0 0 0 0 0 0 0 0 0 0 0 0 0
0 0 0 0 0 0 0 0 0 0 0 0 0 0 0 0 0 0 0 0 0 0 0 0 0 0 0 0
##$SPW= (0..63)
0 2.3732e-05 1.0548e-05 0 0 0.0082432 0.00011435 0 2.8588e-07 0 0.0082432
0.0082432 0 0 0 0 0 0 0 1.683674e-05 2.617216e-05 1.222054e-05 6.590438e-05
0 0 0 0 0 0 0.1092 2.0329 0 0 0 0.00011531 1.0548e-05 0.00067505 0 0 0
1.0548e-05 2.8588e-07 0 0 0 0 0 0 0 0 0 0 0 0 0 0 0 0 0 0 0 0 0 0
##$SUBNAM= (0..9)
<""> <""> <""> <""> <""> <""> <""> <""> <""> <"">
##$SW= 11.9833321960719
##$SWIBOX= (0..32)
0 0 2 0 0 0 0 0 0 0 0 0 0 0 0 0 0 0 0 0 0 0 0 0 0 0 0 0 0 0 0 0 0
##$SW_h= 4795.39641943734
##$SWfinal= 0
##$SigLockShift= 0
##$TD= 4096
##$TD0= 1
##$TD_INDIRECT= (0..7)
0 512 0 0 0 0 0 0
##$TDav= 1
##$TE= 294.6
##$TE1= 300
##$TE2= 300
##$TE3= 300
##$TE4= 300
##$TEG= 300
##$TE_MAGNET= 0
##$TE_PIDX= 0
##$TE_RAW= 300
##$TE_STAB= (0..9)
0 0 0 0 0 0 0 0 0 0
##$TOTROT= (0..63)
0 0 0 0 0 0 0 0 0 0 0 0 0 0 0 0 0 0 0 0 0 0 0 0 0 0 0 0 0 0 0 0 0 0 0 0
0 0 0 0 0 0 0 0 0 0 0 0 0 0 0 0 0 0 0 0 0 0 0 0 0 0 0 0
##$TUBE_TYPE= <>
##$USERA1= <user>
##$USERA10= <>
##$USERA2= <user>
##$USERA3= <user>
##$USERA4= <user>
##$USERA5= <user>
##$USERA6= <>
##$USERA7= <>
##$USERA8= <>
##$USERA9= <>
##$UUID= <>
##$VALIDCODE= -1
##$VALIST= <valist>
##$VCLIST= <CCCCCCCCCCCCCCC>
##$VDLIST= <DDDDDDDDDDDDDDD>
##$VPLIST= <PPPPPPPPPPPPPPP>
##$VTLIST= <TTTTTTTTTTTTTTT>
##$WAVEMAKER= (0..7)
<> <> <> <> <> <> <> <>
##$WBST= 1024
##$WBSW= (0..7)
4 10 10 10 10 10 10 10
##$XL= 0
##$YL= 0
##$YMAX_a= 2941726
##$YMIN_a= -3063836
##$ZGOPTNS= <>
##$scaledByNS= no
##$scaledByRG= no
##$shimCoilTempK= 300
##$ABSF1= 11.4917
##$ABSF2= -0.4916979
##$ABSG= 5
##$ABSL= 0
##$ALPHA= 0
##$AQORDER= 0
##$ASSFAC= 0
##$ASSFACI= 0
##$ASSFACX= 0
##$ASSWID= 0
##$AUNMP= <proc_2dhom_NUS>
##$AXLEFT= 0
##$AXNAME= <F2>
##$AXNUC= <1H>
##$AXRIGHT= 0
##$AXTYPE= 0
##$AXUNIT= <>
##$AZFE= 0.1
##$AZFW= 0.5
##$BCFW= 0
##$BC_mod= 0
##$BYTORDP= 0
##$COROFFS= 0
##$CY= 15
##$DATMOD= 1
##$DC= 0
##$DFILT= <>
##$DTYPP= 0
##$ERETIC= no
##$F1P= 11.4923000335693
##$F2P= -0.49229602130613
##$FCOR= 1
##$FTSIZE= 512
##$FT_mod= 6
##$GAMMA= 0
##$GB= 0
##$INTBC= 1
##$INTSCL= 1
##$ISEN= 128
##$LB= 0
##$LEV0= 60
##$LPBIN= 0
##$MAXI= 10000
##$MC2= 0
##$MEAN= 0
##$ME_mod= 0
##$MI= 0
##$MddCEXP= no
##$MddCT_SP= no
##$MddF180= no
##$MddLAMBDA= 0
##$MddMEMORY= 0
##$MddMERGE= 0
##$MddNCOMP= 0
##$MddNITER= 0
##$MddNOISE= 0
##$MddPHASE= 0
##$MddSEED= 0
##$MddSRSIZE= 0.15
##$Mdd_CsALG= 1
##$Mdd_CsLAMBDA= 1
##$Mdd_CsNITER= 200
##$Mdd_CsNORM= 0
##$Mdd_CsVE= no
##$Mdd_CsZF= 0
##$Mdd_LrLAMBDA= 0
##$Mdd_LrNITER= 0
##$Mdd_LrRANK= 0
##$Mdd_LrZF= 0
##$Mdd_mod= 1
##$NCOEF= 0
##$NC_proc= -1
##$NLEV= 10
##$NOISF1= 0
##$NOISF2= 0
##$NSP= 0
##$NTH_PI= 0
##$NZP= 0
##$OFFSET= 11.4917
##$PC= 1.4
##$PHC0= -8.978053
##$PHC1= 38.24854
##$PH_mod= 1
##$PKNL= yes
##$PPARMOD= 1
##$PPDIAG= 0
##$PPIPTYP= 0
##$PPMPNUM= 2147483647
##$PPRESOL= 1
##$PSCAL= 0
##$PSIGN= 0
##$PYNMP= <proc.py>
##$RDF1= 0
##$RDF2= 0
##$RDFWHM= 0
##$RDINT= 0
##$RDPOS= 0
##$REVERSE= no
##$SF= 400.17
##$SI= 512
##$SIGF1= 11.4917
##$SIGF2= -0.4916979
##$SINO= 16
##$SIOLD= 512
##$SPECTYP= <>
##$SREF_mod= 1
##$SREGLST= <1H.CDCl3>
##$SSB= 0
##$STSI= 512
##$STSR= 0
##$SW_p= 4795.39641943734
##$SYMM= 0
##$S_DEV= 7172
##$TDeff= 1024
##$TDoff= 0
##$TI= <Ref APR_479_D
Group Procter_D
H1_COSY_HiRes_Night CDCl3 /mnt/nmrdata/Pr>
##$TILT= no
##$TM1= 0
##$TM2= 0
##$TOPLEV= 100
##$USERP1= <user>
##$USERP10= <>
##$USERP2= <user>
##$USERP3= <user>
##$USERP4= <user>
##$USERP5= <user>
##$USERP6= <>
##$USERP7= <>
##$USERP8= <>
##$USERP9= <>
##$WDW= 4
##$XDIM= 512
##$YMAX_p= 350891627
##$YMIN_p= 0
##$CURPLOT= <HP LaserJet 4250 PCL 6>
##$CURPRIN= <$HP LaserJet 4250 PCL 6>
##$DFORMAT= <normdp>
##$LAYOUT= <+/m2D_hom.xwp>
##$LFORMAT= <normlp>
##$PFORMAT= <normpl>
$$ Bruker specific parameters for F1
$$ ---------------------------------
##$ACQT0= 0
##$BF1= 400.17
##$FnILOOP= 0
##$FnMODE= 1
##$NUC1= <1H>
##$NusJSP= 0
##$NusT2= 1
##$NusTD= 512
##$O1= 2200.935
##$ProjAngle= 0
##$SFO1= 400.172200935
##$SW= 11.9795024318673
##$SW_h= 4793.86385426654
##$TD= 128
##$ABSF1= 11.48978
##$ABSF2= -0.4897879
##$ABSG= 5
##$ABSL= 0
##$ALPHA= 0
##$AQORDER= 0
##$ASSFAC= 0
##$ASSFACI= 0
##$ASSFACX= 0
##$ASSWID= 0
##$AUNMP= <>
##$AXLEFT= 0
##$AXNAME= <F1>
##$AXNUC= <1H>
##$AXRIGHT= 0
##$AXTYPE= 0
##$AXUNIT= <>
##$AZFE= 0.1
##$AZFW= 0.5
##$BCFW= 0
##$BC_mod= 0
##$BYTORDP= 0
##$COROFFS= 0
##$CY= 15
##$DATMOD= 1
##$DC= 0
##$DFILT= <>
##$DTYPP= 0
##$ERETIC= no
##$F1P= 11.4903802871704
##$F2P= -0.490385599582746
##$FCOR= 0.5
##$FTSIZE= 512
##$FT_mod= 6
##$GAMMA= 0
##$GB= 0
##$INTBC= 1
##$INTSCL= 1
##$ISEN= 128
##$LB= 0
##$LEV0= 0
##$LPBIN= 0
##$MAXI= 10000
##$MC2= 0
##$MEAN= 0
##$ME_mod= 0
##$MI= 1
##$MddCEXP= no
##$MddCT_SP= no
##$MddF180= no
##$MddLAMBDA= 0
##$MddMEMORY= 0
##$MddMERGE= 0
##$MddNCOMP= 0
##$MddNITER= 0
##$MddNOISE= 0
##$MddPHASE= 0
##$MddSEED= 0
##$MddSRSIZE= 0
##$Mdd_CsALG= 0
##$Mdd_CsLAMBDA= 0
##$Mdd_CsNITER= 0
##$Mdd_CsNORM= 0
##$Mdd_CsVE= yes
##$Mdd_CsZF= 0
##$Mdd_LrLAMBDA= 0
##$Mdd_LrNITER= 0
##$Mdd_LrRANK= 0
##$Mdd_LrZF= 0
##$Mdd_mod= 0
##$NCOEF= 0
##$NC_proc= -1
##$NLEV= 6
##$NOISF1= 0
##$NOISF2= 0
##$NSP= 0
##$NTH_PI= 0
##$NZP= 0
##$OFFSET= 11.48978
##$PC= 4
##$PHC0= 0
##$PHC1= 0
##$PH_mod= 2
##$PKNL= no
##$PPARMOD= 1
##$PPDIAG= 0
##$PPIPTYP= 0
##$PPMPNUM= 2147483647
##$PPRESOL= 1
##$PSCAL= 1
##$PSIGN= 0
##$PYNMP= <proc.py>
##$RDF1= 0
##$RDF2= 0
##$RDFWHM= 0
##$RDINT= 0
##$RDPOS= 0
##$REVERSE= no
##$SF= 400.17
##$SI= 512
##$SIGF1= 11.48978
##$SIGF2= -0.4897879
##$SINO= 16
##$SIOLD= 512
##$SPECTYP= <>
##$SREF_mod= 1
##$SREGLST= <1H.MeOD>
##$SSB= 0
##$STSI= 512
##$STSR= 0
##$SW_p= 4793.86385426654
##$SYMM= 0
##$S_DEV= 7172
##$TDeff= 512
##$TDoff= 0
##$TI= <>
##$TILT= no
##$TM1= 0
##$TM2= 0
##$TOPLEV= 0
##$USERP1= <user>
##$USERP10= <>
##$USERP2= <user>
##$USERP3= <user>
##$USERP4= <user>
##$USERP5= <user>
##$USERP6= <>
##$USERP7= <>
##$USERP8= <>
##$USERP9= <>
##$WDW= 4
##$XDIM= 512
##$YMAX_p= 350891627
##$YMIN_p= 0
$$ End of Bruker specific parameters
$$ ---------------------------------
##NTUPLES= nD NMR SPECTRUM
##VAR_NAME=  FREQUENCY1,    FREQUENCY2,      SPECTRUM
##SYMBOL=    F1,            F2,              Y
##.NUCLEUS=  1H,            1H
##VAR_TYPE=  INDEPENDENT,   INDEPENDENT,     DEPENDENT
##VAR_FORM=  AFFN,          AFFN,            ASDF
##VAR_DIM=   512,           512,             512
##UNITS=     HZ,            HZ,              ARBITRARY UNITS
##FACTOR=    9.36301534036434, 9.36600863171356, 1
##FIRST=     4597.86543308258, 4786.03041080563, 1722
##LAST=      -186.635405843595, 0,           -2784
##MIN=       -186.635405843595, 0,           0
##MAX=       4597.86543308258, 4786.03041080563, 350891627
##PAGE= F1=4597.865433083
##FIRST=     4597.86543308258, 4786.03041080563, 1722
##DATA TABLE= (F2++(Y..Y)), PROFILE
511A722a999j713l08m87k998K996E794c396N65D350O972m15b821k386K401C091
494f173b857A0501K601c201C771j588L289c257A0870c402j181H100J0984f152
479F685k5a21G204B870f125M1j376J760b031j754B0880b765k668L01j856l80D724
461g444F314j329P384C415a006A1578c020B1606d346F880M6277a8425k3753i016
446d397j229J861J837k268A0653g5l29F142j345J1113B606g411a985m28q153F222
429A018k75J638b63l405A207J308e888K563C1523j2603C381f368B32e089j011
414f100J451B446P354e563B608K0133a639l144E154E87O779P080a544l815J979
399c380n27a947A4717j81K0883j1311f015A6570L610G332a954P27o73j088B5596
383B2614b265h07F096J4424i70k84B4203f685C59N422N916m157g66C616n85d101
366C443I59f097A6468p514K1394a177j3613m608D932d932A654b702A320a909l937
351e846D584J3575J3944N1260c4695G027A984O0470K94355j47002E5013M2861
339I7874B3669a356k813G914B672d638a892A796e384K523g04B5827B48R987a151
323B513b519k849a964m672j731L735R76H713A052b569P55l744j724a483l344F510
306d606l491c816D085A227Q89b87A869J172A000i18J68H651b084N28l259K066
290b749J374C443P202A342h69D4254J422j2797A5070d701D336K2525N008G791
275C022f8k798D155e578j023I640B108b344l422a199B046a810o212H344j052d582
258f214F290g861L346h12B9789j3462K716H367C633C41N23O499b850l054k30a189
241a86B309J5964e1E49b86C124A540O40J717b933B5183L342n740g558L637f30
224c308J449Q43j07A424P074L176j548A068d907P28a282I054P787J4276k627P791
208C6281o044O263r843F896d672k600A763M7591J0369B4403F861L24A571R95K6421
193B8987r213b487j319J125F552b206A995c235H861C079b657l680L164j030H06
177E271d508b054F470B144b67o917c254j743a639p8n677C0633J539f058J869j075
161e264A706R469A049d508B206d157O49B010a482I655J1695b243l391A240c062
145a668D070e511P89A360g520c722G6a410C674b967O20m893b060I423a28H527
128E772b789E84J7879A881m11b948D647k110a726G159l133q38K0840n9b180l760
112e940K290J208H87C91M021D54J743a837B107e438b388J055D99c118I19N940
96F859J254l01c242j186j827k914D774b613p12A05K5858q800A412f905A0016A357
79f433K251J789I955e874a954j89O0q28r93D518J7362k239C219Q504A140E45J8075
62A8620f882a245B902J2853K1285E793d821b161j122J502j527A040R818j374b01
46d044m68B6097N231H253N502e306f51m462A3a581l790j449c173D951d213j73
30d386K186M30h44G74O123g981J744J821H4d446J767p773A64J306J3878A975r76
13I99R550R452J598B71O459J8469j1252J516G340A631d690k38b101
##PAGE= F1=4588.502417742
##FIRST=     4597.86543308258, 4786.03041080563, 9223
##DATA TABLE= (F2++(Y..Y)), PROFILE
511I223a069j431N32j656J407I805K3901B21a343G287c471D3259A3363e568K692
496b876p70k015b295A373J4086D352J8407r488B885c422E575d11l146I025J4622
481B3647G32k01N190c543J8j451M40I412f66n329h84r36B4969b778k499n61A5620
463B0901b690n426c418A6169n467d094G26K0454c624A929d073D488J00163B4516
448c3240A2566J6467B170H90d831Q98B4387E565b398j380A536L2377O91d541A0928
432f864l957b716I325k337a213E937c169A250L888h331c944B1174N509c229E55
416a147j984A3021d956J799A0329e712g36A1425c697j499J667n52I084J9784b586
400f841J697j164F60K8828A0962Q262J1914d084A0183P204D681j617M32d102N86
385c516B110L682M162L782e845a042C903b100C913h928b552A94N216J7168E821
369D67J074e148p88J941k845f98b01A2903i844C5799d0841i22E126d182J244J89
353b749E119a108J37n21n020D944G76R471B970b6613A49601j3151B8830K833A5830
337A1960m747j313K4573d86k238J14C628d010d51A2193N599c893N86j671J755
322c223k062a577m324K40J135K204A3366g450L598a187I22g463a624F771j996
307D775g461J434l96b043D208a038l226B9N364E74b586A669M39c456J578B020
290A0217c53l649l59J761pD0745j1139j1989o865d371M84A949K467r69b074j913
274c987a363A475J303J3762K1423C287d049j723b222F44d29n423G214O517D0b398
257i32F606b041k47A7997D008A105N500b059A467O61L851b984j571b187P97A01
240d496I188A302a769j077F628o19B957d107j900A4805Q141k010g201c506k522
225f028a866k651C654a615m127i79j366H917A666a110K9H128a083M27E266o95
209D571j427M5387l089k1765C808a693k894A7579P4047J013C3748E779K763B714
194B231K4425p125e828K449c91B074b147f24j659A7351q601l406d900J988P11
179b201c74l387k017D953b891H36c684k978c218j008F055J0423a821C24e51o518
163g069H12d520C26K0679p808d566a322m246K381B084J429k87J1869o186l197
148E712j754A019a967B814d529k50o1K399j987a960n087Q19b844B479e183K061
132c122l81A098D83d425K114D730L4377b544j485B238K2899r103c114a13A2385
116C2835k724j884F23c393q4j458D169J1657G865b108P48c32G843d717K069J165
100a483r79p95j167A0211J326l890D50f019n54Q76h42j322A9357a697A8163E016
83F747P026k860c358l302L282O78a07n566F551a865j347O46m75j8G533B374J4672
66A7046J3417j5224a940F081f770A1544i75H385K1961C207c447g74k490E234a450
50b006H101J42a922k133G312K862d205m28B1584e677n1K341j154j243j153n87
34g524j933a792C923d854B697f17B298M416B049K040M5d711e2n538m10k913A4912
16F803R777p908C262A007L107j615c199E824R541B581C76c117A1183e422J01A25
##PAGE= F1=4579.139402402
##FIRST=     4597.86543308258, 4786.03041080563, 5838
##DATA TABLE= (F2++(Y..Y)), PROFILE
511E838A14M30K442c146a200E070J9688B298a703A1055B841L1374A2418b131J49
496a982p71j415a018k827A791fA1539B277a346H6b739G321J682C093J3725l518
480A3300b795D353o91b347l027J293C6091A6188d628C316b389D143A203D18d450
464B4599K4749A5999d482D97J401q58c311g88C094d581k253B9589e207A5135c6731
448c4590D266N780b257A202c140N57H334b07m483G17O049K5746m93d504F22e753
431i062F268k204K332O25K879e468A4648o768a396j627g33A815h44I761c030G479
414C2240c354B284a555E364e089a282A0872B171J419c430j402E637d599o34a417
398c523a649A0071d324J269B5591b245l68Q75l517F605A764b663j056M10K27H483
381F805d750A2104C525a105l473l251G616a046E174R423k400l800l304B246b793
365b663i23k87m741A0953R551l546c8753A555d57n220J668j083D499N712k170
350H041a0477C413P6346B6639G551k49f4685i26k5339E151b149A1462k076J0631
336B0017N247j835B555b015J85F403b956B194J0824K6347A7431d19q23k438k402
321f082B399P298B241b972a424c73l833R96A845P086f139B581K5621J3843A6307
305b541n490K038a198j733k198C30d193J376l05A72c720J03a124D259L559c726
288d496J45a403C050J1941B268d584P85o13A3493l182f077I898I64d219E913K006
272G919k058R701L630H99d459j518K940J282P03B315d415B807J138K292J5241
257B1478K2C905j583N418F37b7k136M94E844L612b234J15k371A558a823q72l207
240e902F685a351j099j370B254d132N02q36j972a126A008J038f489B486f42G990
223G116f93k063r62A6906F587b43j725A2674C515K6590F388A436O597j911e506
207B4327r456p269A053J02J1299C164L3521m857B365h114K847a461J83NN30k372
191c115k18A674a338j593G92P841h582L421H44d819J064j302a708k148M38G063
174c847O86A408f619A2659D065J519J7807D25K2859N362D0i77F226d353D464K671
158G135d327J719k869A98O65J907L200D43L288O033a358B477J273R052l168c330
141e217A1917n19a092m427B885p0j88J8914D41O19a985e01j056G8J123K0605d99
123c555A001J8178q600c186H166J5629L0381k6644D936c015d2k507p88A0423J6652
108B7075b930A045b995I266J5152d52A30d29k471Q64A32L74A82b755E570d727
91d224a831D18b668B9365b324h15C734P757J2237j90D311d877B323b854p15j412
75d981E122E90N842H15f65R2k582a015A0085J9721q79c612m84a756D718a762m459
58f221F12i77B100J67a582E254F97c145J57A078b200O26G20J4543N378r038k778
41H825h49j355A632a253k265j355R56r30A1041l131b432E257c686E403J10M8787
25E4300j3108j5836a779A675b838l53a285I521E36K144j60i88C522J7313P162
10B7997a929j392C61d199a374J17I326b475b41B257
##PAGE= F1=4569.776387061
##FIRST=     4597.86543308258, 4786.03041080563, 3041
##DATA TABLE= (F2++(Y..Y)), PROFILE
511C041b298K77O3l375k625J311g73B334P389e11m581I009C820b993o90a539C632
493b79m508A67h976A7196e618G384N883A996J820J4947d99j11I037b8F824A57
476D479d712A0717J2995F551f321D868b172l800B883A120b124D041K0150j1472
462A2719A571O851C303f616N63n99D219c504k321C1517i509B8158a89D243M7683
447E1926a0163L394E153b951f86o746J536a317k253e36A178J617g077m20n47J407
431f637o77K067I611J9055A1646m510C343j79B08c954A092g013j99D279d998J832
415c166A9204o726B592g33D531f421C856J6711m172A290d366l204B381O431l392
400E420J6135q256a520m611b075k793I747b445h22m132j859a630L00j697k456
385e483J517j81C361d354n60B859J053a13D023c130G37B47d666a496D432K819
369G251Q6J826f127K403D376n26c343P6D117O996m253P866A47f021J071k01D91
351B344O706a0238n525A5713J7515G047A408J1943c8654o294A4621e979G85c780
336A6995R236b534A3914a786k923J067A411C43L78J6932D549c618A925c259k561
321e820B394J7912B758b828K8A1776c62k512A134L114e7F982P888K5419l591H553
304a002k234M58J088k859F45d887b098m45r99A9390b878g51H083L3687D081a796
287d149G01R953e296q42B274b927M88B9984J0884j7844o739D818c775H10J287
272B097b278l950c1B224B10e766b724A801B65K36e929b469d23A406Q094j943K2773
255C0330j2042l427n736p8c184a483I34Q14c232R11k626J022a930j308k521b250
238c609J298G701J0308a803j467j258j374J856g7l548A1314N543l907J8650N819
223C7419d803A35e56B9700H513b168m70A1676F22J6006L210B024L0554R958a852
207f10c02H03a044N1B5886E369B374K315b13q976M74b034b22A156O911O661D602
189a362j005j524C483L1568N42j6051F104c404lA0678A715J575P036c671K27a628
172a054o937B8535o757C296j527f180B7801J4602C503g042A1767a654n070b656
157d903A6b285A1775N274J2820H200a594C730f529e28A0253J6582P574A7132e502
141g597H807L148b366d17A6017m916b707C4566H40b822M44E385P002a420A6200
125D103b961d94B599Q743d785D130f420G85K2413K810d973l025L687A992N617
110G609l054O638g421B703P930B277J288f847c384R4k263J275A4968D013a197
94h318A2141g425K551D519A857J491K3052A1140e939A509a960j167G868a041o570
79g611a934l120k463H90f335A349R661a419k431a126m694K339J072A1333n81f298
62d592B801D78c602m801c666J118A079Q382c411J200D344e699P49b233l178F3
45G187l534N819B191K853O028l251J037l082c242l586K791m160B1594a598k416
30d014J834H947d466c7D6175j3811A4980B550a293j990n49O10k188dA877J5463
14A7340D043h07I806Q139D76a280j346J126d27R3Nj438A689L972
0E661
##PAGE= F1=4560.413371721
##FIRST=     4597.86543308258, 4786.03041080563, -3796
##DATA TABLE= (F2++(Y..Y)), PROFILE
511c796Q93j399j758J229H59N272k641J0184K4602C1L188l62d757m5a099C637
494A6202C72b614B4258m243d596k238I927O482B614b418E224I86c28l940I281
478H557e907B913f742A4827F704B419f323b903k394P2J831J119C747q6L8019J1610
462E3290A9650b838k950n58p86b685B2190B593c150C917b957A14669l875m5837
448F4957J0423A5207m989f8j990Q26j691g40H553g317c211j017l841Q65a54o184
432f338B154O752l790E06K6743Q58J47I238J2904E081c430C798J9326p075A117
416e986a480C5334k01A2427m749d508J774H75Q614J324g644L162l854B078J9773
401B1851q577J4200r229a499M53k522J245J40H237Q436d134J927G291a889p75
386b664a252D424c265E092g31l550J772l56D02K154j027d480b103j48A504e847
369D778A476K939N216d701H976D099K649f284B2382M5907J7002B1538P16G623
354c461a497B2995I11K173b056k5255C9696K6095k9242q889J8268f2379J4009
341d8370b522n841m612d263D90N120j509L014b791C174N682O009J3947D470d620
325d76n974L102j864a278k022D325g616J604E291L9325C888d536J305a520B5046
309B1116d411C896R741D583f748G42c127n31k639b139l493C423k62C02L1160c406
292c459C002K5778A024d193J707f17C016h81p547L432r45K601A1085J7966K5609
277E4660m493A8079e398k153c645l095b509m023J965A182g083K891A428L430k023
262B835e289k57L14F02J4150j68l206j079i0j369C140c902j178K506j385n84K055
245b488B876d427h53m246k041a595H590k847J532K604g125J376k08K506J639A3513
228A0447J2454q136p302J1874P197C804J0873e885A1397H80d098M51J087A2069
213A4348J9803G716J4203J4035E025c188I34M190g440J844B715b988J308k21c7
197a775q789M980b070J60B2017K683E927e111l7O14J798B3671N870j1618n394
182A2529D243c986B0470a67k287I975G06d070I33g474j711A1201K54e847K905
[...]
352A3103E881f047p587k283L05L207A9016L0136L01234L1627h513B2458a8559
338a3315b631F0J1482D080b978H811b420A8254D326L494G99g964H275g450H08
322D092d416j869n1K34G628J813e81D605N257J4277j0826M097c111l494j00o06
306g311c191n866G388k31c493B908J166b692A6732p715b280k91H525J3513a120
290A303J3559d077j781e68c4j478N64o11m707D497J633a1062q83M971r30n53C33
272f861A3112m976A735e643J221C15b183B856H42O542f81B1052M32P93l504G973
255e668o30A4232M919n784g680R53A7688E287B284c50H287e002a946C196L29J25
239C650e759j870Q6a467A026P571e264D172K7084G346b001F400B598g734K980
224d754a84F671b790k027k384b969H384J8308j2859d490j85C568c773n45k209
209f527B011Q2c989j288R46q41j067k743L455K165D906e134B127J3843b722l303
193f025k511B310R303f06l720k4e20B5353G528d353a525j461k358H686l990i87
176A3447d76F227c858a612L95k79j879L7n23D475d318I357a023B403R42c51H794
158B873L423b774q23B2108b422j797j032b242A1694L21i46F568l040d823B833
142d745m5D293A809c468l357G423K9617A0552B065b455G599c604m27H562J0040
127A8602j109k961F928e23B384M70e618B4061n171e705h49k092A539i99b67m290
111d557m30a962n45h06j580j976D655J1368F469d944A1745K0810M414A2826c946
95g019A2611A730D74e018A914a823A2718b652j401j348A217P338A790b544A833
79c215k025K549k113A0190e418h52j421M82j147C558J3006L3101l327G011a90
63F176c653o11j25k557K396k34B260e085E515f055b824n51j257n70J232k548M91
46f027G38P196j64g172c359G224J756B136q17A28L473J5259K0773A0903c279D893
29D14f495C109f728c242m309K24C621A148K8226A1059a098o106b086j202f9B0666
12I941J545j433l209e751K124B904J639K0998m420E311e480j681
0g161
##PAGE= F1=-121.094298461
##FIRST=     4597.86543308258, 4786.03041080563, -6926
##DATA TABLE= (F2++(Y..Y)), PROFILE
511f926P39k168c901f87o00B300c366E304A511g229G82J523M862M85f980j003
495g983b061A85b322G962m55K858k017r00J176d567D759N821n040i690L371J569
479d750R30A1015a519B072K3499p580A866d331F104P90J7770O796E035a43m675
464d818a867m225m71C716M289P859n424e560q8q51B570e666k484j0950a467k9898
448c1365a0759A880h609K557K333c25j707F472I2J6087I55f630n50A8426C746
432b285o455c481B7369B4d099C751h78l900a457B306c191k486A1739b261B8015
416B9946j0972b795M87D88K043f74l073I349K975F60O212c373k729a764H142f027
399d014D40J8092d628P54q68A4747K598g776N0b768A9347F123c573A8142D816
383c299J334k267k049a447j813D031J5826J1703I76f375b406j60A9827L3363A2390
367a764o481a772j27k616J992F808K9207M3704C5040c0706J5352a084p581B612
352F68g180n12K88B9249a9733N871A4519l611J08684L4106j8523c415j6713R912
338a0216B735d27I625l744N181K1972a52j815B8178H725J0490G708c438B481M183
323F664R899G098d212P42j80a048c7H934d813m17b443A3916F204k143d878j163
307f041n32A743g833a550g61m536C530j054c023n3K56j73A1633B695J849a406
290F57R285c335j248a294m003A5469q72a189n062H686D087g840l427K995J308
275f964p22C855C14c689k93A2145b511o170c542G223J4782j0042C38h292A4714
259B6837A3304J541C936O255e512C658J0063O98e093j835A216c150j048I24N821
244F745h222A4270M319F387f798J536k051j106e76B019N227A288Q038K8431k478
229C5279A2966G77J113e499b635A334O90c242j692k952G671K062L0691j8365e279
213f547K710A4217D170c443D906B68e704K641A651e737l9n551N521b148D088L50
197D438b581D663e890A016b744C402a04k475a092B940J1897n042g092L138C420
181d097j754A1469f474I31J9935F166b207l119K131J540A463d326r4b131B346
165f306A3124e12n759M97F398Q347b325A2187c457k441J86e00n518K654n04B915
148f017C376J1486p4a565E03f200j19A5428m602e023j25J642A4318D793i72a58
131A4966d338j631H624K5105C491H01M387h50G374e141a455I652l602e735A6419
115A2707J137m115N40f529k69F77c697J98C51e689A063Q446I59f632J247g60F766
97B02e763k776A553l99a773k705P2aA2329B777b942e30A556O04e029a433B017
79c994j527N28I540A35h307D43c919M86C517J2732c426E283R536D297c326L05
63c021E656k274a910q125d694b283h62A107J1740f983D295d894p21m48b16p069
47g285k85K141b568A4290c330a42B5855L63F299N039n635g532F345B082d633C029
30B4004q839f700l434K250J802b469m424C6J2889J273K917g24p112A917H67f302
13F679K89O104m341b163C8c932A6480j607J6351L03A3983g406M91
0f915
##PAGE= F1=-130.4573138014
##FIRST=     4597.86543308258, 4786.03041080563, -1
##DATA TABLE= (F2++(Y..Y)), PROFILE
511aA356e017J011d68l138k598B85J7727a291D86N010f292a1A6721F28d736J011
494c725a252C238J2907F816A292g473J168K407a083A0765n174B144P298j759b078
478A0839c750k547a865I869J4113E756K411j757J3K3550m387A354K3027d577j745
463f322K075j543B4010A1452R015F951e368n46a956m672k563j516j8291d269k1765
448b6034a0355A0678f815J215G051m60A679Q826G94J557a406k25o387L602A5293
432C572h248c263I495d188m81H997k101e665P40J132A30L467F52g933A6341J138
416A7479K791M39d944M80k148N29b466I14R546R012O50c934b21k621r05l024c227
398G862J8054E370d669I622j811M058f814J173K302A4682b366j856c27m697C1
382H277d647j775j433L100E026J3024M667B223g829N29a664l419k053k665A5487
366e065G555f065B445a353o427k69A1376C647d5432a6983A3689D590j229c515
351He565J297F1499f6674J3788e467l8721a361j7306B20532D1564E726a1291d620
336e985D568e488I846M9362A2072J0763A0824b312H296b832B60L677m23R157j184
321A1487c523l57j994b719J358B046e988J81a671m7A8263K667c941l061n22c21
304g602N31b02n737c48C758c114J43o21l62F083f382K803e40A0237m771b983l47
287c330l25j01G425j208c82A3977E464b657n091L789j187k084o35I332a951j717
271c668J825A3943b752o477F277b065B7665A1120d946l017C958n57J5316e122
256H897Q510a215l276j49D462L162c123G708c140j298e53m144P1A7274R674r889
240A7059g094J978k029b936j002A971N908C127b960B1920N738H099f088Q23H585
224A5120J278k101d986G714e098C813c859A2093n414e356n66A1207K62m830H40
208b78A38e073b55C804c988G355g80m251O45D806J327B288a441N89E789a684A463
190b465j673A45J4376K2633j6141e843K429A665a195J07A3436g153L184B686o04
175B082h71l563h42j174E28c237M74Q81h4C309a05m151n98q5C000j284L369F77
156b774p4k278J525J005J150A57f967J034A36J940K876f9H571d419Q32H962J626
139A0588c324L42o479a979l156e5l286i91j928j772j555E438c541o28a036G299
122H323O437A182f920P41J733B2972m087H323B369J365e915j104F585c356i08
106B816c248j931j013J635A632J2032c347q17k919a875n849a863K14A362a157
90A379J597a422H098A389K0400p462b619j412G123J59g84I25b23F576f963J98
74f765g68m25k255B39M815e722N47b338Q82k021J692H587A989P862F82f265c60
56f19A4896O41G495c072N24j458j311O04B328b778J363r44D227a003C277N765
40I042R50b19B715b551k535a04B882f680I5R647l91c887O19o95N32D775A148c616
21A6571m992Q339D795c496M83j847j790N14k94K296k128j404A69f020A7351E161
4A2974j698A522d454l63
0d817
##PAGE= F1=-139.8203291418
##FIRST=     4597.86543308258, 4786.03041080563, 8971
##DATA TABLE= (F2++(Y..Y)), PROFILE
511H971l859g159c434D007a997D666R388E257j679L091e911k969A9622D12R455
496I867l848h415B212c543p04l981N52Q46Ma322j365H849l618e170A8228J868
480B0096D929K4727R55g04A1761c778B07a919A964M031c985H64a962k436B3126
464d075F121c155l780F322a579E978g21n247Q91A5967C620L574a3655m862k8192
449d6709b0390i133B628f506J880C326j642b655K33m221F170J9541q566g243K030
434e213A601B04b940M10k174j586Q78B6760o995B304b201l72a212D484J1872d287
417c932J260H560Q42d376j110k455J346b995p30J126A334R290c225A5235F134
401d016j397J548A007K935O374b587B0332J4018c119B918m42e110A992e434f06
385d574b140c03A0385a883k582k316L040a321A094K4102B37Q80c125G071c427
369d038A9444I378k524K666f930D926f943E370a0987k4487l577J0500a3383A0724
354A7289H025j416F20J6618m201a992l9422f690l992j9656e1G4361B7884K6995
340E4879j9751f075f25A727K2765A0408B866K7244e496A7073e896k181K483b083
325A0911d192k562K156F369C017L86c929J408k389K26n78m96J512P45A0519K05
309A0724c140l186p05K323j981A368O843e72B136b518C12b025j73k434f04n227
293e831a099A569J6546q602I70b710l65J426O89A2981J048J3708j173C018a497
277A4854n453b559A88Q594c541R57B676a989k100m587A9491B093M830C414A305
261a064C808e09E7i94B301c247I353e441q47A9380Q267C436K7264A0518b142A2307
244A3318j856A781J369m11f304J643j870A416e968a077K83A30g870C909A674d934
227E305J167L0990j4535o999F364b591A1790d376j249k89a383E32c929o45A512
211A4257a117A7561N10a388l047A9946k795C570J2214k715c07r66A7515L3046
197E0561j4204A3022e33K2m648b262p83j185a434C715L194B112d956J843P5C804
180F758a838l916J68l46J235Q6J904f4B144b663L48O03M15k810I917f003M48C603
161c575a569l576f60k562J079c99m243P22M95k07A167f292D987R17f912i31C938
143A6202a619A636J3032N557b143l999K845E028d481D359A329g00j232j681B72
127C5662C447b48C241M663R335J0152c359a224j371k423B306R97c507O37A3797
111b175m366B469b318I16G1c653j857R99J881A2619J1771I52c983j714H39c546
94a085K74I437Q627B004b384J61j516c63A9043l028b180k143F782J90d18A318
77D539j582g474i45k558F02b762e82j298a96A898a348m79k026J913B6218H654
60B5073E255B490o91g55G818R898P748m703A329a902O63B201Q147m816K402j330
44F604C048J4163j36k959c099o11k802b847l33l381g29m980b318A393c503a695
27F654j101b864A5762n78F212k151d16A6659G095g32l536Q78C712d547q26D913
10g467J442a495k613D672f105e45C408b786a119o29
0a748
##PAGE= F1=-149.1833444821
##FIRST=     4597.86543308258, 4786.03041080563, 12051
##DATA TABLE= (F2++(Y..Y)), PROFILE
511A2051D344J800o11J6183H595J6943K1331d479a226k208m342k836A4377a391
496A0572R13d733l8g28r122d351a904A783m25e983F030e691A082m03n8Q625A620
478A6420L358b761B9664E047c967j772m258E297d522q18j409K945E67Q815J7947
463B7329j1621I07g093R70a983j889H492B030K083j941J3524a2178j1857R042
449a4993B8003A0565R412F666a078j876L22j411k198n3A4265L2243k3158d294
434d221J755F151J2053a029k466N02H370j919J976K0989G369c770P11l59A1906
418e121N90C91K1679j460d276P86k752J465J844a389B245J4555h03q29I297b49
401E977P46c979j098B752Q76B17e155A4017d723D565L091h39D03K582f7l004r84
384d055A955J3956I67c676m55a892A5823p214O764Q398n587P53A583e737a486
368D3946I253C082J50e601b151n129c1j1072j0600G335R064a5313d158l16O52
353c822A4373b476C1435J679B668a1150o328M567b290l6975G4412A9449b975I885
338a1136b752D400J0388K266q366c939D561c420J69l749L35J30B384L284L630
323I298D569b424E006J6427F434d884a497k379l06j110B963g45o741J634J416
308d436m99j041K712F26K8397A2085d344A309c655D978b441l426K145d22E497
292a294I05K292f67A209c424n3n5c52A0107l252K79J129B451J2616M333o642k560
275A0198J122d187A442d369k164J060B557h124H881a11j23B831a210D487J8376
260B2863G528A880c26m682A025L953M85f645E005R759a874I851l708J359J6590
245B4092n413B521c363m654K280P40N40j167P15p86C768g229d64l209F073i86
228B161J9752A0344J3935I397m109b018q71A38f277B65f918b434j433F489N768
213A2257i75A4193A669J1808K053c093j308A6418L715A695J277J522N133b527
198G37L1120R441r207B472e647j794c043fl188F767C10J9172I008e948K638O7
182c243A901L061e900K816p86o21o4d77j165O69H122b596P31JE386d422J250l66
164c538j693B650K391c639A685d735G99a353j212n09k149O04J708h68Q9F180q63
147E317e388K556a039A0330b582F64J4774J2028B329A098i73A925a157A301c730
131E642m55b447B975M6912A0503D585A627c471A688K2658d927a597q96k215O15
116d093A2503M682b395C5813B711e734g61C74e87j585k424b228k586A299M881
101F180j294d095Q11k548b651A3132a974B397r72J1049b416l724B237h635b433
85H65J851g71j783C926A352a682j983a209D114g000C7a222n13m85g54B905J7d244
66b741b71j046E060M1534A3099E962K2267K93G640H74C73f58I110J789k525a115
49a899P57B449K10J181r88K761J0103L174Q527A237c775j227H180a793l963a559
32e639N36F14a317B50M495B005i55H497N667D484e075j192I44L19c869a818C481
14A4990d505a099J21d69m240K041k917Q40d43l758D034J1b959J70
0b789
##PAGE= F1=-158.5463598225
##FIRST=     4597.86543308258, 4786.03041080563, -3577
##DATA TABLE= (F2++(Y..Y)), PROFILE
511c577G08Q958C267Q858m401K1805m198a721n382J939j768F927e270A9479D321
495a407j450A4129f440K465C129a871C361d71n508A8172A882K848J3738f872J059
480e813A52a679A4209n900d332c55n650N5N73Q98k83K062E32j80d269I110J9050
463B8160K691j3291C434N180e615B896J4153b224A7514A137a102D484r45K9657
449C3196O3033m3032B5938A2566H82j48J9827H509c827m253H423O612l335b748
434b193h2C11J0363b143k536J95E508i075C844K2852C670d080K43l086L144j641
418e420j10I05J2724m928d657a145k644m08g07k278m76A640b283J115l715K276
402b607A1353P042A689e718i84A119M343L109c288l173J038G682k913F30c50A4509
385A4858a547m713D687b500k028a964J20C2917a864l415B2258l915Q368A864g143
369a3156H187A063h555E949f445O30q78n500J891j4771i29p016n492d614H374
353f028h84j792G751k381h977G5446A6544h895A6379c8536C7089L9598c7186a8033
338c396F075b342l706A202E53K219C48Q025E87f866C816A44J50J7067J4011A4975
321A2314d6A3357F274O602n20d088Q27A707J4905A525b210E369b732D040f108
305d174a574C2712E70P825d447M78G86c315A3169F100i59B4245B294a842j852
290c694R46K03b56l307j608o837d638l121J666N07f60F67c026c3G448K689f355
272e261a791o793K984B1276h183c533j909A211L427J3180J31O336G80b535l372
257e907K727a561D828J47f877Q36n16B032I4h005A3555l724A235K586c586j484
241e070k116K484M15B767g951K061a686k893J641E344J2438B759j2Q547j736b553
224c666B399a6l906q33j903B392d713J621n22A6755m825c504D584J626O131E570
207c154j677g82j901j313r0I394k047b458A1340g264F603J1484q989cF800a570
190d65l321F624i13G859a104n487b463N4A422K818a606k555a705D397b934C364
173c000J212B883b722L09J110A954d376a540j139o60C1790j567B54N898b730j001
157c731a703C363Q447D345K62c519J541A2110C10J0050j82i015A01J1055m239
142F917l130b996F786Q965K566a135l834A631c353E965d132A404c223p60B2866
126D196H61d846J29k633B374f310K535B16b756A268K2084J5718f689A8964b12
110g276C522N394Q41E54f139G372o39d805n60k127g14k156J116N69A1170b687
93A208d583M11Q1J515K41p323a371B862M40a355k762a897k19o44j892j814J675
76d791I35J2324l594c018l61k534A9974P650o737c113c47r14l91A4139D09R159
60I568J444J5180F134H11J2323P695j0138C475K7850D299e943N57M94j78a821
44b004A6617p995I79f68k659r12j541D580C28c550P44l375o93K70F648G97K847
27C644g018H369E76L581H47f163i19m85j573p97A2727A863L678p24L8519K597
11D5933B0112f511J335B14g624F321c240C65P546q74j792
0E245
##PAGE= F1=-167.9093751629
##FIRST=     4597.86543308258, 4786.03041080563, 10772
##DATA TABLE= (F2++(Y..Y)), PROFILE
511A0772d315F809e804m71b568A0403d802m533M364n62q93A4095e560A7459o506
496A0953d627k706B356g356A580J857Q650L803a929n254C459c171R53A1773a0304
480f280I709l069J3601L01B854h461q8J361A0058e993n52C51J277a385l750K27
464d908D864N576K86m848j963a467o08j131B141M174d450r451I214a1835j272
449a3107A6408K1429C342J508R698i92B5130j1489J131A382J286i655D032A627
434g286H040a297F91d207J028n020J164l354c496J078p84g47m414l049K258k958
418h910c643A4567d531I360j565J7094j2270d16k85j713j037D939c617D080g272
402a265A588O824m057e446l15b351A3422d944j229E221A170f97A033h65k678C3100
385C8196I57d706A415b218D106N292c177A4460d214F544B505M022B382b285n411
370g696j5748q417a3271N527a874n360J697l565l748K912l4195K1999j8138a3673
355E054e440k89F29M883f777L007p146G4173j6613c823L40D8153c9931k2660K5661
340c6930J8464g723g89m129m626h38q944G22K1062p610A176G2J2146l284e753
324H61O420O23L823H29d556a017A5349o568d117B302K0968A0302b526R90A7553
308A541K1283c068p02l881A1123c811E740g59j32k237K65A8832E000J973f65F577
291b72l020a83A0295A139h18l754p708A849f142o83J712C535C76f473A7054e472
274A020e639a044l644j505J186A6257A426c660j633A7170N51a21G650B863J871
259D734N217a816j475D400b045k450j062j063P11a590n605j127C262c691j349
244e040i14k551l243J617h18k066F659c944A7381E660b550D158M550R705A118
228d745J54b46j809j528J66J032B257g3n974K178A0634b857q18H339C367a978
211B2239m382j166G972b848j437C348K054j466b97I579B489b567A9864e549K188
196c361A751K114g57B2460i14l839k16b192j510j701J926j921C613A548J567M69
180C584A410f726b889A2354G71c305M08J414K3J61k85d47k820k037Q07N85j71
163d083B2213J353p626e26A390e204b096M51A8462q64l747d762a670I786B646
147A4839K104i097L574B630L215j013k023a196A1516J198d742l43a401j645A977
131d001E003b950m970G117B61f66m289b137o271c160l587C886j382c84A2139m213
115G926Q709f485a141A347a228E858N481R141C236e808A9494r67d572j075k596
100h243A1595m640C120R73E93b790Q63j940k315b352G562f738b847A9862q774
85A1088C180M068f219p43a252d47m620j996b002I770K2427j222A870c577m01A8281
68B1631l434c625a795k161J496C91b570E143e815A6788c0I39J7735J215F585k311
52D274J6099a25o171P32j478B755J3546g65B6512r407D581b072j424j637k802
37g935N06A3076j256c127l286D637o73b172I324J7499f776I178C257b296m96k852
21e644A140d793b287j335A4321A375f652I329M8139J2366A8310h460M155A1298
6d932J779d52n817b783A6793G925
##PAGE= F1=-177.2723905032
##FIRST=     4597.86543308258, 4786.03041080563, 6904
##DATA TABLE= (F2++(Y..Y)), PROFILE
511F904a975A4834b448b42m84j057A464e223B52J6949g51G883B587K872B026J7660
495A9686e099N21F355B624J8137K326I097a674q82J83m559j980a895n310L130
480d075D352j062b26j407n782K867K044k140H428c598f34A298c190L98Q09k728
464d711j146J692b40k952D149L393c433a78B274J808n5a2607d490j6982j6600
449c8072k907a18p225H64J1124n630k679j603J7780q564J1586j0516c912E567
434e883D275a437A866C20L440f092e94A298b720F664K5722j1534d388k395A501
418a089B799K0302c247B0294L15J5601A5382F632c033F035Q82p77b343B9895j3765
403A6130D873c408M74n43E477c129B310M6876B3782e149B7260A1399e37m035g12
387a818A6795M281C073e595B55J194f66A0741b842M60J053A8925A448b244A0843
371E024d819j5855j0366a1706F746d308k229K162j53l994A592a2259F703d1771
356a1319F357f482A716K6532p374e927k318k0217F0412N1477C3062b3498A40019
342E5957a15572c5011g959K219j965L264e02j684o347b993A5123A208c480B1693
327a121C920b948I9L969f39j852j414C937c042a357k519A618J009J6403A922d612
310a372H931h73A5774b549O70J97j994N18H540J1261r581b353C427P9L705K1913
294B9124l377B19e72A63M835L9316o764A029a434B804P845B84e768q93I04O982
278G886F13J924d296a402j396a317m417K687j839K327G492c125j942A8643Q881
263B7524D042c660a314A526N120a262l641D030c095l385A981K544B97L405p7m40
247C185a382r09k349l095b782B143e675I880K240c296j666C7898j0765G856b437
231A838J918c493j191k15J747l428K662J577k559D918J3132q123c073A1818G32
215c729J323A3435E132J2162D49j57L33a493j915C726L460k162j444O076M203
200A3859C107P564K351m076c155E281M783k345c667a120l833N4n04N37n91Q55
184d602H893I18e98k909o71j273K118B858a345n588F62i37j090A629b02j897k640
167d739j502g03n58n121K481B584J1827a03E986e776a535H982B685N183l050e147
150a409D148j152p74f09l005m963e23k581B346f80l91G6J313N984d157q45K015
133b987n540b233E151a328o887L560n23J578j471J777m328K449K81B457L144P666
117A3267E215A071e496k248L330A918J4647A315j12P575Q016b870F005r98b186
101e291k742E116L205O707Q438j0760b677I61K721f559J112F881d554C959K5515
86B9474L4N41F465g239J974C469r62d019k839M76C91O448J1701A370c164k10J478
69a896m325D360N374a970j572D159N369d47k239D925K5185C448B4M103c54A789
52b815i85D23f188Q90j759C935L0689A0050m800K857K6150J3572D354c323J392
37a931c47E955N162a987m302A0267M135l470J2973l797D85a351Ll988Q22a354
20b799k379A700d738O92B2318F959B22J2294O080b257m142A623L178d728l070
5g798D8d215F54Q263E49
##PAGE= F1=-186.6354058436
##FIRST=     4597.86543308258, 4786.03041080563, 547
##DATA TABLE= (F2++(Y..Y)), PROFILE
511E47f26C372a107A498a35D489M683c113L62B4210A916d59B382j149c93B4040
494d395O11A5222i87A990J7529D909b887k359B244f961k063B62K846b906B918
478b94G145k256A181e287a018l649m398d260c08j896l602K223g07l079k405a949
461b147D3J02J2512D285c632C253A42J7599a2404c60k6492j3157M811f251p37
446f988j462a226C825b78l660dC909L0275j0530h77l430N2C670b221o049A3152
429g21k432I981l028d97A0466K8304A5816e455C996b34A0523b903A566a394E416
413G786k471d828B823a944D334j756d150B475K3060J972j1391A956d878a362C516
397d313a247B1576c655a671A4858o520B818b748H33g397C278c165B0954I586i063
381G235L387D645b909j725A5471C948e020F217K1358C462A254a9201j1134a2830
366A6019a516n905A0882k960J0647j553m923J8525d0989a4302G77g533b150A8895
351A3110g161F53g374E8780L260k6467c2936A44975M6627d8721b31F2487A0382
337g719K477A3655a695p731M656A067e421b292A0782N020c726p30Q57B639b481
321f256J052I96f097k077J471C037P563c825L57j400n19b13m948b535k118a109
304e153a839j929A2514M801H183a833G903J051l854b491I547h73k53j90A842L6187
288C8029L618B978i35E821K788J663i72p176D512K38J1785G919l771C69c407C788
271e900d93m687a789e20k975j150A955K579c976J068m14k012l090g90l763J810
255b743o30F571J2099M973B810L965j967K347B20e76m262l234b246H057l621K5066
239B9502j2577B966c781A4536M511p157l826b477D677k151A136d245j735B206
224b414B799d676A678K1146j364o208e480D11c373L32H631m099J802K0086K205
209B8625R365I234B578O85f030b781h33l1F197B183K787J0500J64c496D85J0284
193A0769b783a094o16k488A292d631K238k266K095C912a629M5l085j561d36F562
176c961J457B682m43K70a259F7c88j249M71m214B7306K279d898q39A06h29k716
159c545p46O2C504j495b902p96g92E309K920k119p9c121m147a550l510b233J2
142b221D656b190A915J056K573Q712c208j10a348n979A819c850A2617C480e079
126c944c60F80M576d272E17a307B130J5987R39B965a034A78f116q1b924A4298
109A862h59A887J5833C492d70F056d655K87j850C154c05A7620P025j2216B066
93D032p77d694a892B6459D82a86A1391P776L0422j8444e397H606k156A936a306
77d853D344h128B672a322j199P14k798B252L790J8367R35h9j149A014N872a347
60B787l46J7336r374C366c340j249a873k312a470I701a797j429p9J275B3926P990
44C1916j0818A859K5409L412A503b125B869J189i86k778D487A539a882C551K775
29F326J3131k870A512K073e040L38N96a969m409a608j961J198D393M2935B0119
13d631B848m83H57c540L03D442J65J574M737G95c926O98M44
0b784
##END NTUPLES=nD NMR SPECTRUM
##END=
